268

C	-3.9846	5.2058	-7.1354
C	-3.6240	3.8780	-7.7684
C	-2.3480	3.7101	-8.3507
C	-1.9577	2.4592	-8.8648
C	-2.8762	1.3857	-8.8588
C	-4.1495	1.5420	-8.2805
C	-4.5302	2.8018	-7.7669
C	-5.9366	2.9827	-7.2128
N	-6.0189	2.4931	-5.8401
C	-5.1109	0.3776	-8.1712
C	-2.4733	0.0557	-9.4824
N	-1.6842	-0.7380	-8.5447
C	-0.5587	2.2347	-9.3984
C	-1.3981	4.8998	-8.4127
N	-0.7075	5.0708	-7.1375
C	-5.5607	-5.5399	5.6226
C	-5.3101	-6.3770	4.3860
C	-4.2044	-7.2435	4.3059
C	-3.9328	-7.9517	3.1145
C	-4.8163	-7.8386	2.0252
C	-5.9264	-6.9668	2.0917
C	-6.1870	-6.2666	3.2839
C	-7.4183	-5.3791	3.4009
N	-7.0782	-3.9810	3.1498
C	-6.8010	-6.7836	0.8686
C	-4.5866	-8.6532	0.7600
N	-3.9199	-7.8452	-0.2563
C	-2.6809	-8.7999	3.0279
C	-3.2799	-7.4230	5.5007
N	-2.1023	-6.5686	5.3714
C	-1.4630	8.7769	3.7180
C	-0.9762	7.9548	4.8934
C	-1.9135	7.2622	5.6913
C	-1.4824	6.4113	6.7254
C	-0.1018	6.3030	7.0054
C	0.8408	6.9900	6.2192
C	0.3952	7.8446	5.1860
C	1.4183	8.6397	4.3880
N	2.0059	7.8142	3.3372
C	2.3275	6.8078	6.4411
C	0.3542	5.4321	8.1680
N	0.4152	4.0277	7.7723
C	-2.4692	5.5885	7.5266
C	-3.3981	7.4403	5.4102
N	-3.8143	6.5811	4.3061
C	8.1301	-5.2044	0.3531
C	8.5335	-3.8824	-0.2649
C	8.4743	-3.7267	-1.6677
C	8.7592	-2.4823	-2.2601
C	9.1813	-1.4063	-1.4479
C	9.2390	-1.5484	-0.0493
C	8.9434	-2.8001	0.5354
C	9.0789	-2.9632	2.0428
N	7.8888	-2.4643	2.7283
C	9.5869	-0.3770	0.8449
C	9.5762	-0.0890	-2.1028
N	8.3959	0.7198	-2.3890
C	8.5940	-2.2688	-3.7501
C	8.0972	-4.9239	-2.5308
N	6.6478	-5.0967	-2.5669
C	-4.6186	4.7185	2.2350
C	-5.0553	3.8008	1.2917
C	-6.1470	2.9535	1.5719
C	-6.7873	3.0532	2.8188
C	-6.3353	3.9701	3.7634
C	-5.2491	4.8195	3.4910
C	-4.7794	5.7623	4.5093
N	-6.5761	1.9915	0.6215
C	-6.5686	2.3057	-0.7608
C	-6.1279	1.3561	-1.7064
C	-6.0925	1.6710	-3.0557
C	-6.4886	2.9435	-3.5134
C	-6.4165	3.3057	-4.9312
C	-6.9307	3.8836	-2.5661
C	-6.9789	3.5738	-1.2096
C	-6.8804	0.6730	1.0479
C	-7.9398	-0.0391	0.4602
C	-8.2025	-1.3481	0.8530
C	-7.4350	-1.9775	1.8486
C	-7.7169	-3.3650	2.2242
C	-6.3851	-1.2508	2.4439
C	-6.1081	0.0497	2.0501
C	-0.2897	-2.3566	-6.5721
C	0.3192	-3.1819	-5.6387
C	-0.1903	-4.4728	-5.3848
C	-1.3179	-4.9119	-6.1004
C	-1.9290	-4.0721	-7.0271
C	-1.4293	-2.7831	-7.2824
C	-2.1048	-1.9123	-8.2473
N	0.4074	-5.3062	-4.4044
C	1.8152	-5.2894	-4.2265
C	2.6723	-5.2887	-5.3401
C	4.0514	-5.2286	-5.1587
C	4.6154	-5.1863	-3.8719
C	6.0694	-5.0946	-3.7111
C	3.7484	-5.1998	-2.7611
C	2.3733	-5.2465	-2.9320
C	-0.4072	-6.0501	-3.5129
C	-1.6190	-5.5117	-3.0316
C	-2.4042	-6.2289	-2.1421
C	-2.0062	-7.5034	-1.6913
C	-2.7976	-8.2588	-0.7173
C	-0.7967	-8.0330	-2.1739
C	-0.0077	-7.3258	-3.0771
C	2.3330	8.0022	-0.3139
C	2.7739	7.2868	-1.4233
C	3.3212	6.0025	-1.2608
C	3.4280	5.4626	0.0377
C	2.9966	6.1875	1.1380
C	2.4360	7.4712	0.9836
C	1.9339	8.2354	2.1283
N	3.7419	5.2518	-2.3880
C	4.8950	4.4309	-2.2963
C	4.8970	3.1361	-2.8555
C	6.0124	2.3224	-2.7375
C	7.1622	2.7656	-2.0548
C	8.3298	1.8973	-1.8864
C	7.1549	4.0581	-1.5029
C	6.0424	4.8864	-1.6242
C	2.9514	5.2326	-3.5662
C	3.5608	5.2024	-4.8329
C	2.7779	5.1447	-5.9830
C	1.3740	5.1351	-5.9097
C	0.5745	5.0472	-7.1353
C	0.7722	5.1771	-4.6362
C	1.5435	5.2202	-3.4843
C	2.9625	1.3876	7.7331
C	3.1835	0.0741	7.3300
C	2.1694	-0.6396	6.6690
C	0.9257	-0.0147	6.4431
C	0.7098	1.2897	6.8600
C	1.7268	2.0186	7.5077
C	1.5292	3.4104	7.9178
N	2.4100	-1.9588	6.2077
C	3.6363	-2.2661	5.5638
C	4.2503	-1.3288	4.7068
C	5.4310	-1.6427	4.0506
C	6.0372	-2.9035	4.2184
C	7.2657	-3.2689	3.5085
C	5.4207	-3.8308	5.0770
C	4.2420	-3.5205	5.7494
C	1.3694	-2.9217	6.2436
C	0.5233	-3.0120	7.3627
C	-0.5225	-3.9303	7.3730
C	-0.7466	-4.7906	6.2845
C	-1.8650	-5.7346	6.3160
C	0.1141	-4.7019	5.1727
C	1.1521	-3.7836	5.1481
H	-4.4087	5.9114	-7.8693
H	-4.7205	5.0867	-6.3336
H	-3.1002	5.6734	-6.6873
H	-6.6364	2.3872	-7.8201
H	-6.2620	4.0351	-7.3050
H	-5.8121	0.3396	-9.0216
H	-4.5853	-0.5822	-8.1384
H	-5.7002	0.4491	-7.2495
H	-1.8428	0.2524	-10.3638
H	-3.3624	-0.4886	-9.8504
H	-0.5019	2.3921	-10.4885
H	0.1671	2.9095	-8.9331
H	-0.2233	1.2127	-9.1862
H	-1.9842	5.8133	-8.5998
H	-0.6973	4.7987	-9.2615
H	-5.9969	-4.5710	5.3526
H	-4.6342	-5.3293	6.1661
H	-6.2485	-6.0387	6.3256
H	-8.2258	-5.7407	2.7380
H	-7.8080	-5.4460	4.4288
H	-6.2057	-6.8659	-0.0482
H	-7.6068	-7.5351	0.8209
H	-7.2739	-5.7962	0.8524
H	-4.0358	-9.5841	0.9873
H	-5.5628	-8.9608	0.3530
H	-2.3339	-8.9103	1.9956
H	-1.8619	-8.3367	3.5908
H	-2.8406	-9.8135	3.4317
H	-2.9318	-8.4674	5.5297
H	-3.8235	-7.2494	6.4474
H	-2.3431	8.3107	3.2597
H	-1.7374	9.8027	4.0158
H	-0.7018	8.8563	2.9352
H	2.2326	8.9485	5.0625
H	0.9714	9.5704	3.9929
H	2.7431	7.5782	7.1118
H	2.5560	5.8324	6.8826
H	2.8689	6.8598	5.4892
H	-0.3812	5.5151	8.9838
H	1.3146	5.7960	8.5768
H	-2.7764	6.1000	8.4540
H	-3.3783	5.3738	6.9553
H	-2.0322	4.6215	7.8019
H	-3.9964	7.2730	6.3244
H	-3.5806	8.4833	5.1063
H	7.7582	-5.0789	1.3752
H	7.3222	-5.6704	-0.2232
H	8.9726	-5.9147	0.3944
H	9.9360	-2.3647	2.3895
H	9.3061	-4.0127	2.3052
H	10.6627	-0.3454	1.0851
H	9.0308	-0.4327	1.7881
H	9.3275	0.5798	0.3803
H	10.3163	0.4490	-1.4823
H	10.0726	-0.3047	-3.0620
H	9.5334	-2.4441	-4.3005
H	8.2652	-1.2441	-3.9593
H	7.8374	-2.9376	-4.1737
H	8.5355	-4.8318	-3.5414
H	8.5306	-5.8332	-2.0852
H	-3.7613	5.3607	2.0320
H	-4.5474	3.7161	0.3309
H	-7.6317	2.4009	3.0411
H	-6.8394	4.0364	4.7303
H	-5.3091	5.7180	5.4840
H	-5.7972	0.3757	-1.3642
H	-5.7292	0.9475	-3.7859
H	-6.7177	4.3464	-5.1739
H	-7.2481	4.8740	-2.9005
H	-7.3252	4.3124	-0.4870
H	-8.5430	0.4379	-0.3122
H	-9.0245	-1.8938	0.3842
H	-8.5237	-3.8619	1.6456
H	-5.7759	-1.7449	3.2012
H	-5.2789	0.5953	2.5006
H	0.0879	-1.3500	-6.7535
H	1.1871	-2.8315	-5.0801
H	-1.7153	-5.9096	-5.9146
H	-2.8074	-4.4251	-7.5721
H	-3.0234	-2.3334	-8.7074
H	2.2473	-5.3235	-6.3433
H	4.7070	-5.2226	-6.0326
H	6.6485	-5.0063	-4.6543
H	4.1834	-5.1429	-1.7629
H	1.7111	-5.2338	-2.0663
H	-1.9262	-4.5171	-3.3543
H	-3.3297	-5.8057	-1.7510
H	-2.3538	-9.2217	-0.3875
H	-0.4723	-9.0211	-1.8395
H	0.9263	-7.7504	-3.4448
H	1.9052	8.9976	-0.4537
H	2.6906	7.7117	-2.4235
H	3.8402	4.4620	0.1669
H	3.0558	5.7644	2.1410
H	1.4661	9.2115	1.8809
H	4.0048	2.7746	-3.3668
H	6.0099	1.3117	-3.1463
H	9.1578	2.3185	-1.2784
H	8.0389	4.4213	-0.9739
H	6.0495	5.8872	-1.1925
H	4.6482	5.2139	-4.9055
H	3.2645	5.1162	-6.9607
H	1.1549	4.9425	-8.0761
H	-0.3160	5.1452	-4.5755
H	1.0663	5.2297	-2.5043
H	3.7604	1.9349	8.2403
H	4.1456	-0.4054	7.5107
H	0.1409	-0.5616	5.9206
H	-0.2414	1.7861	6.6667
H	2.4172	3.9096	8.3593
H	3.7784	-0.3586	4.5523
H	5.8965	-0.9291	3.3703
H	7.6263	-4.3044	3.6825
H	5.8794	-4.8112	5.2252
H	3.7755	-4.2489	6.4126
H	0.6878	-2.3517	8.2140
H	-1.1759	-3.9886	8.2466
H	-2.5103	-5.6797	7.2177
H	-0.0720	-5.3547	4.3195
H	1.7983	-3.7090	4.2737
