102

C	-4.6846	2.4924	1.5960
C	-4.7490	1.2248	0.7691
C	-4.7717	1.2979	-0.6393
C	-4.7503	0.1181	-1.4127
C	-4.7789	-1.1383	-0.7724
C	-4.7587	-1.2179	0.6360
C	-4.7801	-0.0346	1.4032
C	-4.8621	-0.1174	2.9148
N	-3.6221	-0.1754	3.6914
C	-4.7092	-2.5672	1.3217
C	-4.8631	-2.4064	-1.5995
N	-3.6257	-3.0646	-2.0257
C	-4.6914	0.2006	-2.9244
C	-4.8428	2.6485	-1.3250
N	-3.5964	3.3347	-1.6731
C	4.7004	2.3938	1.6448
C	4.7554	1.1329	0.8081
C	4.7801	1.2171	-0.6002
C	4.7534	0.0432	-1.3819
C	4.7724	-1.2181	-0.7508
C	4.7448	-1.3088	0.6566
C	4.7748	-0.1316	1.4327
C	4.8583	-0.2262	2.9444
N	3.6191	-0.2691	3.7241
C	4.6732	-2.6626	1.3309
C	4.8553	-2.4796	-1.5886
N	3.6162	-3.1203	-2.0364
C	4.6958	0.1341	-2.8930
C	4.8729	2.5726	-1.2748
N	3.6411	3.2809	-1.6327
C	-1.2309	-0.3029	5.2538
C	-0.0186	-0.3650	5.9356
Br	-0.0307	-0.4878	7.8489
C	1.2024	-0.3402	5.2673
C	1.2157	-0.2497	3.8647
C	2.4888	-0.2203	3.1254
C	0.0000	-0.1855	3.1674
C	-1.2244	-0.2118	3.8505
C	-2.4889	-0.1496	3.0978
C	1.1963	-4.3879	-2.9210
C	-0.0278	-4.9337	-3.2989
Br	-0.0486	-6.5145	-4.3831
C	-1.2372	-4.3625	-2.9128
C	-1.2269	-3.2019	-2.1195
C	-2.4904	-2.5715	-1.7003
C	0.0002	-2.6437	-1.7333
C	1.2133	-3.2283	-2.1267
C	2.4857	-2.6206	-1.7048
C	1.2536	4.6857	-2.3571
C	0.0431	5.3025	-2.6623
Br	0.0627	7.0180	-3.5178
C	-1.1801	4.7078	-2.3655
C	-1.1957	3.4479	-1.7419
C	-2.4696	2.7886	-1.4104
C	0.0174	2.8183	-1.4283
C	1.2439	3.4277	-1.7300
C	2.5040	2.7485	-1.3863
H	-5.6896	2.8739	1.8398
H	-4.1515	3.2918	1.0680
H	-4.1573	2.3312	2.5436
H	-5.4519	-0.9971	3.2168
H	-5.4328	0.7358	3.3138
H	-5.7191	-2.9599	1.5244
H	-4.1813	-2.5145	2.2811
H	-4.1855	-3.3128	0.7118
H	-5.4420	-2.2232	-2.5183
H	-5.4471	-3.1721	-1.0654
H	-5.6983	0.2371	-3.3715
H	-4.1733	-0.6633	-3.3569
H	-4.1525	1.0944	-3.2601
H	-5.4203	2.5719	-2.2596
H	-5.4203	3.3578	-0.7119
H	4.1696	2.2291	2.5899
H	5.7082	2.7640	1.8949
H	4.1758	3.2028	1.1229
H	5.4417	0.6169	3.3467
H	5.4368	-1.1156	3.2393
H	5.6757	-3.0752	1.5303
H	4.1364	-3.3932	0.7141
H	4.1456	-2.6085	2.2905
H	5.4233	-3.2564	-1.0530
H	5.4487	-2.2942	-2.4978
H	4.1827	1.0444	-3.2246
H	5.7027	0.1428	-3.3414
H	4.1525	-0.7133	-3.3277
H	5.4601	2.4952	-2.2035
H	5.4539	3.2688	-0.6500
H	-2.1858	-0.3244	5.7767
H	2.1500	-0.3883	5.8018
H	2.4035	-0.1495	2.0240
H	0.0074	-0.1136	2.0764
H	-2.3943	-0.0829	1.9969
H	2.1422	-4.8350	-3.2234
H	-2.1942	-4.7894	-3.2087
H	-2.3936	-1.6508	-1.0932
H	0.0122	-1.7406	-1.1170
H	2.4000	-1.7077	-1.0846
H	2.2101	5.1514	-2.5895
H	-2.1266	5.1902	-2.6044
H	-2.3879	1.7993	-0.9207
H	0.0066	1.8394	-0.9414
H	2.4032	1.7575	-0.9033
