144

C	-4.6817	-2.4254	1.6349
C	-4.7358	-1.1788	0.7770
C	-4.7489	0.0961	1.3805
C	-4.7255	1.2592	0.5827
C	-4.7612	1.1444	-0.8233
C	-4.7464	-0.1281	-1.4317
C	-4.7691	-1.2878	-0.6290
C	-4.8660	-2.6563	-1.2769
N	-3.6343	-3.3780	-1.6089
C	-4.6994	-0.2500	-2.9410
C	-4.8570	2.3918	-1.6825
N	-3.6278	3.0475	-2.1389
C	-4.6585	2.6255	1.2318
C	-4.8462	0.2139	2.8916
N	-3.6231	0.2623	3.6961
C	4.6653	-0.2118	-2.8555
C	4.7284	-0.0875	-1.3474
C	4.7529	-1.2467	-0.5438
C	4.7383	-1.1370	0.8620
C	4.7676	0.1382	1.4637
C	4.7424	1.3017	0.6657
C	4.7603	1.1855	-0.7402
C	4.8547	2.4300	-1.6046
N	3.6260	3.0738	-2.0758
C	4.6884	2.6677	1.3168
C	4.8591	0.2559	2.9733
N	3.6245	0.3102	3.7607
C	4.6843	-2.3819	1.7227
C	4.8428	-2.6137	-1.1950
N	3.6143	-3.3298	-1.5414
C	-0.0020	2.6294	-1.8187
C	-1.2227	3.1929	-2.2239
C	-2.4895	2.5699	-1.7998
C	-1.2133	4.3429	-3.0251
C	0.0037	4.9307	-3.4203
C	0.0053	6.0954	-4.2381
C	0.0044	7.0964	-4.9446
Si	0.0096	8.5958	-6.0030
C	1.1849	8.3022	-7.4367
C	0.5898	10.0509	-4.9693
C	-1.7359	8.8889	-6.6262
C	1.2177	4.3531	-3.0006
C	1.2220	3.2008	-2.2020
C	2.4863	2.5861	-1.7562
C	0.0066	0.2638	3.2099
C	-1.2220	0.3039	3.8873
C	-2.4797	0.2437	3.1211
C	-1.2292	0.4030	5.2859
C	-0.0214	0.4594	6.0078
C	-0.0371	0.5676	7.4265
C	-0.0505	0.6662	8.6474
Si	-0.0561	0.8179	10.4760
C	1.6152	1.4800	11.0167
C	-0.3606	-0.8872	11.2012
C	-1.4237	2.0062	10.9689
C	1.2012	0.4110	5.3103
C	1.2209	0.3147	3.9120
C	2.4908	0.2630	3.1683
C	-0.0162	-2.8887	-1.3539
C	-1.2287	-3.5218	-1.6694
C	-2.4987	-2.8452	-1.3547
C	-1.2052	-4.7841	-2.2784
C	0.0201	-5.4131	-2.5727
C	0.0396	-6.6908	-3.1998
C	0.0530	-7.7865	-3.7482
Si	0.0565	-9.4193	-4.5859
C	-1.3615	-9.4513	-5.8157
C	-0.1670	-10.7543	-3.2839
C	1.6981	-9.6223	-5.4725
C	1.2257	-4.7629	-2.2454
C	1.2150	-3.4999	-1.6370
C	2.4721	-2.8079	-1.2951
H	-4.1548	-3.2422	1.1275
H	-5.6903	-2.7922	1.8874
H	-4.1541	-2.2438	2.5787
H	-5.4449	-2.5942	-2.2116
H	-5.4566	-3.3348	-0.6415
H	-4.1778	0.5989	-3.3987
H	-4.1683	-1.1564	-3.2556
H	-5.7094	-0.2916	-3.3808
H	-5.4384	3.1673	-1.1594
H	-5.4464	2.1827	-2.5888
H	-4.1324	3.3485	0.5974
H	-4.1236	2.5921	2.1884
H	-5.6630	3.0338	1.4314
H	-5.4226	1.1125	3.1628
H	-5.4445	-0.6178	3.2952
H	4.1292	-1.1169	-3.1642
H	4.1435	0.6386	-3.3101
H	5.6715	-0.2570	-3.3040
H	5.4523	2.2187	-2.5054
H	5.4276	3.2119	-1.0822
H	4.1606	3.3940	0.6871
H	5.6961	3.0707	1.5099
H	4.1594	2.6358	2.2767
H	5.4383	1.1502	3.2514
H	5.4460	-0.5808	3.3836
H	5.6927	-2.7455	1.9799
H	4.1610	-3.2012	1.2157
H	4.1528	-2.1991	2.6640
H	5.4260	-3.2986	-0.5597
H	5.4293	-2.5508	-2.1252
H	-0.0052	1.7309	-1.1950
H	-2.3931	1.6665	-1.1678
H	-2.1630	4.7750	-3.3385
H	2.2055	8.1113	-7.0760
H	1.2169	9.1802	-8.0990
H	0.8713	7.4353	-8.0351
H	-0.0814	10.2234	-4.1163
H	1.6001	9.8761	-4.5733
H	0.6156	10.9698	-5.5739
H	-2.0965	8.0310	-7.2110
H	-1.7736	9.7798	-7.2708
H	-2.4327	9.0443	-5.7905
H	2.1696	4.7940	-3.2939
H	2.3859	1.6798	-1.1287
H	0.0181	0.1891	2.1188
H	-2.3716	0.1823	2.0212
H	-2.1853	0.4363	5.8069
H	1.8106	2.4661	10.5723
H	2.4262	0.8047	10.7096
H	1.6563	1.5858	12.1111
H	0.4242	-1.5914	10.8911
H	-1.3267	-1.2905	10.8664
H	-0.3695	-0.8485	12.3007
H	-1.4613	2.1236	12.0623
H	-2.4047	1.6426	10.6320
H	-1.2612	2.9988	10.5257
H	2.1473	0.4508	5.8489
H	2.4009	0.1813	2.0682
H	-0.0327	-1.9033	-0.8798
H	-2.4065	-1.8473	-0.8851
H	-2.1490	-5.2702	-2.5227
H	-1.3992	-10.4172	-6.3413
H	-1.2475	-8.6586	-6.5685
H	-2.3263	-9.3010	-5.3111
H	-1.1172	-10.6257	-2.7468
H	0.6455	-10.7257	-2.5444
H	-0.1706	-11.7522	-3.7477
H	1.7468	-10.5923	-5.9892
H	2.5377	-9.5716	-4.7649
H	1.8405	-8.8304	-6.2213
H	2.1835	-5.2333	-2.4647
H	2.3639	-1.8145	-0.8190
