129

C	-4.6911	0.6484	-2.8340
C	-4.7458	0.3368	-1.3527
C	-4.7659	1.3830	-0.4065
C	-4.7383	1.0934	0.9739
C	-4.7603	-0.2489	1.4077
C	-4.7397	-1.2990	0.4660
C	-4.7687	-1.0035	-0.9131
C	-4.8706	-2.1308	-1.9235
N	-3.6467	-2.7340	-2.4568
C	-4.6797	-2.7383	0.9334
C	-4.8465	-0.5620	2.8902
N	-3.6124	-0.7272	3.6628
C	-4.6754	2.2203	1.9836
C	-4.8522	2.8232	-0.8763
N	-3.6160	3.5653	-1.1433
C	4.6906	2.1611	1.8854
C	4.7428	1.0144	0.8965
C	4.7682	-0.3187	1.3582
C	4.7428	-1.3886	0.4389
C	4.7635	-1.1209	-0.9459
C	4.7391	0.2096	-1.4131
C	4.7632	1.2757	-0.4896
C	4.8586	2.7070	-0.9860
N	3.6322	3.4702	-1.2343
C	4.6818	0.4913	-2.9002
C	4.8402	-2.2666	-1.9374
N	3.5976	-2.8421	-2.4606
C	4.6876	-2.8190	0.9337
C	4.8661	-0.5972	2.8473
N	3.6390	-0.7320	3.6388
C	0.9632	8.8532	-3.7925
N	0.0764	9.7651	-3.3566
C	-0.8303	9.3310	-2.4637
C	-0.8917	8.0219	-1.9845
C	0.0395	7.0745	-2.4402
C	0.9887	7.5221	-3.3732
C	0.0245	5.6736	-1.9543
C	-1.1898	5.0196	-1.6952
C	-1.2118	3.6951	-1.2313
C	-2.4824	2.9969	-0.9687
C	0.0025	3.0233	-1.0241
C	1.2286	3.6569	-1.2755
C	2.4890	2.9294	-1.0354
C	1.2268	4.9806	-1.7426
C	0.9426	-1.1612	9.5735
N	0.0233	-1.9570	10.1474
C	-0.8982	-2.4903	9.3263
C	-0.9441	-2.2627	7.9505
C	0.0198	-1.4328	7.3558
C	0.9845	-0.8731	8.2090
C	0.0179	-1.1600	5.8987
C	-1.1925	-1.0260	5.2010
C	-1.2076	-0.7611	3.8229
C	-2.4756	-0.6052	3.0868
C	0.0116	-0.6330	3.1405
C	1.2342	-0.7649	3.8166
C	2.4975	-0.6317	3.0678
C	1.2254	-1.0278	5.1953
C	0.8441	-7.6941	-5.8028
N	-0.0772	-7.7867	-6.7773
C	-0.9944	-6.8046	-6.8241
C	-1.0330	-5.7279	-5.9372
C	-0.0655	-5.6330	-4.9236
C	0.8937	-6.6576	-4.8705
C	-0.0526	-4.5079	-3.9581
C	1.1637	-3.9822	-3.4955
C	1.1931	-2.9214	-2.5778
C	2.4678	-2.3712	-2.0852
C	-0.0188	-2.3817	-2.1227
C	-1.2466	-2.8905	-2.5717
C	-2.5034	-2.3107	-2.0675
C	-1.2525	-3.9530	-3.4887
H	-4.1588	-0.1320	-3.3906
H	-5.6990	0.7348	-3.2721
H	-4.1683	1.5920	-3.0295
H	-5.4548	-1.8035	-2.7978
H	-5.4606	-2.9611	-1.5045
H	-5.6861	-3.1645	1.0774
H	-4.1554	-3.3763	0.2120
H	-4.1465	-2.8314	1.8869
H	-5.4309	-1.4818	3.0496
H	-5.4282	0.2165	3.4083
H	-4.1552	1.9144	2.8990
H	-4.1352	3.0877	1.5860
H	-5.6804	2.5655	2.2769
H	-5.4204	3.4267	-0.1515
H	-5.4483	2.8843	-1.8003
H	4.1640	3.0288	1.4709
H	4.1639	1.8782	2.8045
H	5.6996	2.4972	2.1755
H	5.4341	2.7442	-1.9241
H	5.4550	3.3107	-0.2840
H	5.6890	0.5701	-3.3411
H	4.1575	1.4304	-3.1131
H	4.1493	-0.2996	-3.4414
H	5.4319	-1.9682	-2.8171
H	5.4072	-3.1062	-1.5066
H	4.1812	-2.8926	1.9033
H	4.1381	-3.4647	0.2384
H	5.6949	-3.2498	1.0554
H	5.4436	-1.5182	3.0234
H	5.4607	0.1883	3.3393
H	1.6946	9.2080	-4.5243
H	-1.5465	10.0768	-2.1068
H	-1.6441	7.7498	-1.2430
H	1.7289	6.8360	-3.7870
H	-2.1437	5.5173	-1.8714
H	-2.3930	1.9517	-0.6155
H	-0.0076	1.9914	-0.6613
H	2.3822	1.8883	-0.6741
H	2.1887	5.4657	-1.9102
H	1.6865	-0.7253	10.2464
H	-1.6402	-3.1414	9.7972
H	-1.7103	-2.7483	7.3448
H	1.7495	-0.2006	7.8186
H	-2.1489	-1.0980	5.7194
H	-2.3807	-0.3785	2.0073
H	0.0093	-0.4270	2.0662
H	2.3947	-0.4387	1.9825
H	2.1841	-1.1495	5.7001
H	1.5834	-8.4994	-5.7638
H	-1.7386	-6.8814	-7.6219
H	-1.7961	-4.9568	-6.0521
H	1.6607	-6.6615	-4.0949
H	2.1156	-4.3735	-3.8552
H	2.3854	-1.5320	-1.3681
H	-0.0069	-1.5546	-1.4069
H	-2.3955	-1.4891	-1.3335
H	-2.2167	-4.3506	-3.8059
