240

C	-3.4587	4.8906	-6.3679
N	-2.3879	3.8983	-6.2915
C	-4.0123	5.2617	-4.9991
C	-5.1945	4.6535	-4.5308
C	-5.7395	5.0555	-3.2907
C	-5.0763	6.0159	-2.4986
C	-3.8953	6.6214	-2.9782
C	-3.3477	6.2316	-4.2173
C	-2.0540	6.8482	-4.7186
C	-2.2667	8.1174	-5.5617
C	-3.2361	7.7335	-2.1736
N	-2.3039	7.2451	-1.1586
C	-5.6322	6.4028	-1.1389
C	-6.6122	7.5890	-1.1877
C	-7.0717	4.4844	-2.8316
N	-7.1203	3.2546	-2.0434
C	-5.8832	3.5703	-5.3449
C	-6.9029	4.1036	-6.3662
C	3.6115	-6.4086	-4.6843
N	2.4892	-6.3139	-3.7552
C	4.2020	-5.0506	-5.0322
C	5.3533	-4.5920	-4.3613
C	5.9446	-3.3694	-4.7487
C	5.3520	-2.5803	-5.7560
C	4.1970	-3.0467	-6.4195
C	3.6061	-4.2711	-6.0471
C	2.3433	-4.7612	-6.7335
C	2.6128	-5.6103	-7.9891
C	3.6091	-2.2390	-7.5671
N	2.6758	-1.2033	-7.1252
C	5.9592	-1.2405	-6.1341
C	7.0032	-1.3319	-7.2619
C	7.2500	-2.9281	-4.1056
N	7.2423	-2.1348	-2.8779
C	5.9666	-5.4078	-3.2362
C	6.9935	-6.4507	-3.7108
C	-3.8527	-7.4845	2.0382
N	-2.8479	-7.0700	1.0621
C	-4.4527	-6.3188	2.8100
C	-5.5710	-5.6330	2.2880
C	-6.1818	-4.6153	3.0497
C	-5.6465	-4.2464	4.3040
C	-4.5296	-4.9377	4.8162
C	-3.9145	-5.9598	4.0622
C	-2.6950	-6.6761	4.6155
C	-3.0420	-7.9173	5.4563
C	-4.0048	-4.6141	6.2078
N	-2.8534	-3.7143	6.1841
C	-6.2927	-3.1251	5.0991
C	-7.3807	-3.6076	6.0740
C	-7.4563	-3.9508	2.5504
N	-7.3951	-2.7188	1.7656
C	-6.1269	-6.0038	0.9243
C	-7.1963	-7.1095	0.9767
C	3.4937	1.9725	7.7221
N	2.4961	1.0084	7.2633
C	4.1627	2.7283	6.5823
C	5.2986	2.1806	5.9479
C	5.9761	2.9276	4.9617
C	5.4878	4.1939	4.5676
C	4.3473	4.7271	5.2012
C	3.6671	3.9893	6.1942
C	2.4181	4.5647	6.8381
C	2.6990	5.4105	8.0930
C	3.8635	6.1243	4.8429
N	2.7665	6.1124	3.8772
C	6.2059	4.9728	3.4780
C	7.2855	5.9307	4.0116
C	7.2715	2.4019	4.3616
N	7.2610	1.6377	3.1152
C	5.7995	0.8032	6.3451
C	6.8209	0.8322	7.4964
C	-1.6518	0.7771	-8.0613
C	-0.6752	-0.2024	-8.2201
C	0.5063	-0.1633	-7.4605
C	1.5352	-1.1783	-7.7094
C	0.6764	0.8712	-6.5157
C	-0.2962	1.8468	-6.3589
C	-1.4718	1.8212	-7.1394
C	-2.4950	2.8683	-7.0464
C	-7.3458	0.8516	-0.5206
C	-7.4003	-0.3100	0.2299
C	-6.2161	-0.9550	0.6482
C	-6.2708	-2.1930	1.4447
C	-4.9797	-0.3937	0.2880
C	-4.9252	0.7783	-0.4710
C	-6.1052	1.4182	-0.8849
C	-6.0463	2.6566	-1.6801
C	1.1049	8.1703	-0.1811
C	2.0858	7.9455	0.7811
C	1.8672	7.0267	1.8203
C	2.8988	6.8654	2.8489
C	0.6487	6.3156	1.8585
C	-0.3264	6.5365	0.8977
C	-0.1173	7.4793	-0.1320
C	-1.1441	7.7899	-1.1326
C	0.5197	-8.2440	0.2266
C	1.5520	-8.0900	-0.6945
C	1.4453	-7.1552	-1.7369
C	2.5272	-7.0723	-2.7232
C	0.2847	-6.3565	-1.8224
C	-0.7418	-6.5068	-0.9031
C	-0.6434	-7.4626	0.1310
C	-1.7298	-7.6952	1.0877
C	4.9426	0.2184	0.6559
C	4.9372	-0.5345	-0.5216
C	6.1431	-0.9586	-1.1038
C	6.1411	-1.7559	-2.3416
C	7.3578	-0.6069	-0.4763
C	7.3637	0.1351	0.6912
C	6.1539	0.5614	1.2805
C	6.1593	1.3434	2.5288
C	-0.6318	-1.8099	6.3568
C	0.3979	-0.9079	6.5736
C	0.2524	0.1330	7.5157
C	1.3399	1.0698	7.8125
C	-0.9602	0.2566	8.2125
C	-1.9957	-0.6482	7.9937
C	-1.8418	-1.6997	7.0751
C	-2.9282	-2.6716	6.9256
H	-3.0233	5.7887	-6.8319
H	-4.2708	4.5654	-7.0421
H	-1.4037	7.0820	-3.8648
H	-1.5001	6.1002	-5.3017
H	-2.8896	7.9145	-6.4448
H	-1.3070	8.5232	-5.9127
H	-2.7786	8.9023	-4.9870
H	-4.0163	8.2916	-1.6352
H	-2.7552	8.4632	-2.8501
H	-4.7988	6.6369	-0.4623
H	-6.1359	5.5364	-0.6876
H	-6.9817	7.8357	-0.1823
H	-6.1378	8.4897	-1.6033
H	-7.4816	7.3678	-1.8231
H	-7.6225	5.2354	-2.2448
H	-7.7236	4.3069	-3.7009
H	-6.3865	2.8683	-4.6658
H	-5.1263	2.9669	-5.8650
H	-6.4302	4.7746	-7.0974
H	-7.6990	4.6792	-5.8731
H	-7.3755	3.2779	-6.9172
H	3.2212	-6.8735	-5.6025
H	4.3954	-7.0906	-4.3101
H	1.7150	-3.9016	-7.0032
H	1.7431	-5.3368	-6.0162
H	3.2088	-6.5032	-7.7515
H	3.1760	-5.0450	-8.7452
H	1.6711	-5.9458	-8.4467
H	3.1474	-2.9100	-8.3138
H	4.4247	-1.7202	-8.0923
H	6.4241	-0.7860	-5.2478
H	5.1563	-0.5492	-6.4245
H	7.8432	-1.9834	-6.9820
H	6.5697	-1.7507	-8.1816
H	7.4094	-0.3391	-7.5019
H	7.8758	-3.8076	-3.8881
H	7.8519	-2.3547	-4.8269
H	6.4438	-4.7332	-2.5121
H	5.1688	-5.9105	-2.6719
H	7.4118	-7.0074	-2.8601
H	6.5426	-7.1754	-4.4034
H	7.8275	-5.9752	-4.2461
H	-4.6509	-7.9849	1.4703
H	-3.4555	-8.2446	2.7352
H	-2.1053	-5.9711	5.2169
H	-2.0330	-6.9681	3.7893
H	-3.6793	-7.6585	6.3140
H	-2.1322	-8.3968	5.8450
H	-3.5937	-8.6627	4.8658
H	-3.6673	-5.5459	6.6863
H	-4.8145	-4.2215	6.8476
H	-5.5206	-2.5749	5.6547
H	-6.7252	-2.3877	4.4090
H	-7.8253	-2.7622	6.6184
H	-6.9762	-4.3137	6.8129
H	-8.1893	-4.1302	5.5437
H	-8.0386	-4.6601	1.9429
H	-8.1220	-3.7304	3.3990
H	-6.5527	-5.1103	0.4463
H	-5.3014	-6.3150	0.2695
H	-6.7993	-8.0350	1.4183
H	-7.5657	-7.3477	-0.0309
H	-8.0570	-6.8094	1.5912
H	3.0691	2.6814	8.4558
H	4.2577	1.3973	8.2654
H	1.8769	5.1673	6.0962
H	1.7302	3.7485	7.0965
H	3.1950	4.8188	8.8756
H	1.7659	5.8144	8.5113
H	3.3621	6.2582	7.8683
H	3.4784	6.6118	5.7514
H	4.7040	6.7514	4.4969
H	5.4726	5.5399	2.8876
H	6.6626	4.2723	2.7656
H	7.7827	6.4619	3.1874
H	8.0559	5.3890	4.5781
H	6.8581	6.6811	4.6918
H	7.7964	1.7675	5.0918
H	7.9706	3.2357	4.1936
H	6.2509	0.3108	5.4720
H	4.9436	0.1724	6.6213
H	6.3951	1.2875	8.4022
H	7.7080	1.4253	7.2319
H	7.1555	-0.1828	7.7532
H	-2.5614	0.7439	-8.6652
H	-0.8185	-1.0033	-8.9489
H	1.2718	-1.9290	-8.4841
H	1.5928	0.8904	-5.9250
H	-0.1695	2.6578	-5.6410
H	-3.3760	2.7274	-7.7077
H	-8.2566	1.3543	-0.8465
H	-8.3551	-0.7537	0.5127
H	-5.3004	-2.6339	1.7419
H	-4.0549	-0.8810	0.6049
H	-3.9579	1.2057	-0.7447
H	-5.0383	3.0314	-1.9406
H	1.2786	8.8977	-0.9772
H	3.0287	8.4953	0.7396
H	3.8163	7.4713	2.6945
H	0.4912	5.5984	2.6647
H	-1.2745	5.9984	0.9237
H	-0.8585	8.5684	-1.8713
H	0.6056	-8.9835	1.0258
H	2.4487	-8.7091	-0.6182
H	3.3890	-7.7469	-2.5357
H	0.2123	-5.6311	-2.6335
H	-1.6477	-5.9032	-0.9669
H	-1.5312	-8.4874	1.8401
H	3.9982	0.5413	1.0999
H	3.9886	-0.7992	-0.9946
H	5.1521	-2.0060	-2.7703
H	8.2881	-0.9391	-0.9373
H	8.2988	0.4063	1.1814
H	5.1730	1.6525	2.9240
H	-0.5259	-2.6252	5.6406
H	1.3407	-0.9879	6.0317
H	1.1055	1.8384	8.5789
H	-1.0835	1.0634	8.9385
H	-2.9311	-0.5533	8.5498
H	-3.8340	-2.4624	7.5326
