300

C	-1.5375	2.9731	-10.9550
N	-0.9837	1.8528	-10.1968
C	-1.5235	4.2656	-10.1494
C	-0.3188	4.9904	-10.0248
C	-0.3100	6.2062	-9.3115
C	-1.4837	6.6722	-8.6776
C	-2.6859	5.9501	-8.8235
C	-2.7064	4.7342	-9.5426
C	-4.0058	3.9587	-9.6677
C	-4.7985	4.3031	-10.9402
C	-3.9819	6.4973	-8.2383
N	-4.4132	5.7900	-7.0347
C	-1.4368	7.9505	-7.8582
C	-1.7806	9.2169	-8.6604
C	0.9625	7.0352	-9.2541
N	1.9149	6.8430	-8.1609
C	0.9538	4.4700	-10.6692
C	1.1495	4.9548	-12.1168
C	1.0750	-10.0133	-4.9972
N	0.5141	-8.6938	-5.2862
C	1.2374	-10.2736	-3.5065
C	0.1412	-10.7561	-2.7595
C	0.3166	-11.0813	-1.3987
C	1.5659	-10.8738	-0.7708
C	2.6519	-10.3845	-1.5241
C	2.4859	-10.0607	-2.8882
C	3.6551	-9.4983	-3.6770
C	4.5084	-10.5800	-4.3624
C	4.0216	-10.2251	-0.8787
N	4.2970	-8.8494	-0.4680
C	1.7304	-11.1874	0.7063
C	2.1990	-12.6262	0.9821
C	-0.8327	-11.6765	-0.6022
N	-1.7066	-10.8006	0.1788
C	-1.2163	-10.9221	-3.4209
C	-1.4382	-12.3125	-4.0415
C	7.1934	4.8893	7.2251
N	5.8225	4.3858	7.2829
C	7.9758	4.3438	6.0371
C	8.0956	5.1109	4.8607
C	8.8872	4.6321	3.7939
C	9.5224	3.3769	3.8825
C	9.4005	2.6173	5.0678
C	8.6068	3.0853	6.1358
C	8.4457	2.2494	7.3933
C	9.5190	2.5327	8.4604
C	10.1612	1.3081	5.2101
N	9.5562	0.0517	4.7685
C	10.3525	2.8443	2.7263
C	11.8252	3.2880	2.7718
C	9.0756	5.4976	2.5568
N	7.9466	5.4187	1.6316
C	7.4010	6.4550	4.7376
C	8.2557	7.6291	5.2458
C	-6.9244	2.0988	8.6600
N	-5.5023	2.1905	8.3329
C	-7.7480	1.5706	7.4949
C	-7.9123	0.1778	7.3324
C	-8.7237	-0.3063	6.2878
C	-9.3079	0.5853	5.3628
C	-9.1316	1.9732	5.5307
C	-8.3423	2.4722	6.5897
C	-8.1505	3.9699	6.7498
C	-9.2205	4.6261	7.6401
C	-9.8002	2.9449	4.5672
N	-8.8840	3.3915	3.5192
C	-10.1264	0.0367	4.2080
C	-11.6252	-0.0937	4.5297
C	-8.9850	-1.7996	6.1594
N	-8.0701	-2.4513	5.2235
C	-7.2180	-0.7829	8.2810
C	-8.0499	-1.1257	9.5286
C	0.0095	-0.5497	-8.8620
C	0.4030	-1.7436	-8.2730
C	-0.5005	-2.8181	-8.1230
C	-1.8221	-2.6389	-8.5707
C	-2.2158	-1.4445	-9.1688
C	-1.3071	-0.3859	-9.3321
C	-1.7404	0.8338	-10.0216
C	-0.0635	-4.1066	-7.5465
C	1.2080	-4.6285	-7.8471
C	1.6024	-5.8680	-7.3527
C	0.7489	-6.6242	-6.5317
C	1.1904	-7.9457	-6.0767
C	-0.5149	-6.0968	-6.2065
C	-0.9115	-4.8640	-6.7094
C	2.2826	5.0091	-5.0146
C	3.1619	4.8507	-3.9428
C	4.4102	5.4992	-3.9344
C	4.7394	6.3189	-5.0356
C	3.8604	6.4874	-6.0948
C	2.6140	5.8330	-6.1027
C	1.6669	6.0157	-7.2143
C	5.3643	5.3515	-2.8144
C	6.7467	5.2561	-3.0606
C	7.6555	5.1778	-2.0092
C	7.2201	5.2082	-0.6736
C	8.2233	5.2207	0.3964
C	5.8368	5.2779	-0.4198
C	4.9295	5.3402	-1.4715
C	-5.3054	6.7496	-3.6100
C	-5.8869	6.2614	-2.4422
C	-6.3431	4.9331	-2.3670
C	-6.1558	4.1006	-3.4914
C	-5.5650	4.5821	-4.6512
C	-5.1466	5.9238	-4.7352
C	-4.6132	6.4882	-5.9795
C	-7.0359	4.4387	-1.1599
C	-6.6138	4.8122	0.1336
C	-7.2984	4.3848	1.2640
C	-8.4434	3.5758	1.1414
C	-9.2269	3.1535	2.3076
C	-8.8610	3.1910	-0.1438
C	-8.1648	3.6070	-1.2756
C	6.5580	-1.2161	3.0861
C	5.9972	-2.4032	2.6131
C	6.6466	-3.6363	2.8060
C	7.8783	-3.6335	3.4963
C	8.4405	-2.4534	3.9596
C	7.7912	-1.2205	3.7595
C	8.3958	0.0388	4.2237
C	6.0885	-4.9058	2.2926
C	6.2241	-6.0986	3.0272
C	5.7581	-7.3082	2.5191
C	5.1485	-7.3730	1.2548
C	4.7457	-8.6779	0.7204
C	4.9843	-6.1797	0.5261
C	5.4414	-4.9717	1.0390
C	-6.1790	-3.9337	3.5242
C	-5.3539	-4.7574	2.7683
C	-4.8864	-5.9897	3.2744
C	-5.2623	-6.3522	4.5815
C	-6.0800	-5.5233	5.3438
C	-6.5620	-4.3095	4.8257
C	-7.4673	-3.5003	5.6458
C	-4.0386	-6.8846	2.4597
C	-3.0520	-6.3800	1.5929
C	-2.2509	-7.2410	0.8435
C	-2.4149	-8.6333	0.9282
C	-1.5538	-9.5286	0.1405
C	-3.4098	-9.1415	1.7848
C	-4.2017	-8.2847	2.5348
C	-2.6710	2.6294	7.6960
C	-1.3222	2.9002	7.5069
C	-0.7335	4.0839	8.0049
C	-1.5592	4.9860	8.7021
C	-2.9133	4.7217	8.8832
C	-3.4905	3.5405	8.3887
C	-4.9163	3.2934	8.6192
C	0.7017	4.3709	7.8031
C	1.1630	5.6936	7.6593
C	2.5188	5.9648	7.5012
C	3.4649	4.9261	7.4709
C	4.8870	5.2599	7.3440
C	3.0100	3.5998	7.5960
C	1.6572	3.3314	7.7604
H	-2.5520	2.7527	-11.3288
H	-0.9034	3.0996	-11.8457
H	-4.6233	4.1430	-8.7798
H	-3.7948	2.8804	-9.6495
H	-4.2197	4.0854	-11.8492
H	-5.7363	3.7310	-10.9882
H	-5.0544	5.3719	-10.9746
H	-3.9037	7.5839	-8.0649
H	-4.7837	6.3661	-8.9830
H	-2.1190	7.8633	-7.0009
H	-0.4382	8.0634	-7.4141
H	-1.0929	9.3510	-9.5074
H	-2.7956	9.1649	-9.0790
H	-1.7181	10.1143	-8.0284
H	0.7177	8.1088	-9.2504
H	1.5405	6.9041	-10.1808
H	1.8216	4.7706	-10.0655
H	0.9478	3.3725	-10.6407
H	1.2007	6.0517	-12.1721
H	2.0784	4.5507	-12.5438
H	0.3172	4.6424	-12.7637
H	2.0328	-10.1719	-5.5237
H	0.3744	-10.7522	-5.4137
H	3.2843	-8.7929	-4.4325
H	4.2828	-8.8942	-3.0085
H	4.9255	-11.2869	-3.6308
H	3.9138	-11.1726	-5.0722
H	5.3476	-10.1310	-4.9131
H	4.1448	-10.9347	-0.0414
H	4.7936	-10.4951	-1.6157
H	0.7807	-11.0082	1.2285
H	2.4392	-10.4782	1.1561
H	3.1731	-12.8282	0.5143
H	2.2944	-12.8106	2.0617
H	1.4908	-13.3615	0.5747
H	-0.4517	-12.4276	0.1068
H	-1.4977	-12.2538	-1.2618
H	-1.3379	-10.1470	-4.1898
H	-2.0079	-10.7240	-2.6842
H	-0.6858	-12.5359	-4.8116
H	-1.3648	-13.1074	-3.2857
H	-2.4305	-12.3801	-4.5096
H	7.6877	4.5667	8.1537
H	7.2230	5.9935	7.2336
H	8.4684	1.1824	7.1305
H	7.4462	2.4216	7.8152
H	9.3615	1.9083	9.3513
H	10.5301	2.3306	8.0792
H	9.5040	3.5850	8.7788
H	11.1273	1.3725	4.6856
H	10.4465	1.1484	6.2603
H	9.9034	3.1596	1.7741
H	10.3038	1.7467	2.7135
H	12.3892	2.8735	1.9240
H	12.3138	2.9553	3.6985
H	11.9156	4.3830	2.7388
H	10.0309	5.2631	2.0553
H	9.1526	6.5504	2.8699
H	6.4501	6.4307	5.2867
H	7.1199	6.6213	3.6892
H	9.2056	7.7022	4.6971
H	7.7245	8.5847	5.1288
H	8.5118	7.5096	6.3082
H	-7.0120	1.4051	9.5090
H	-7.3267	3.0647	9.0165
H	-7.1543	4.1734	7.1647
H	-8.1465	4.4416	5.7581
H	-10.2307	4.4694	7.2352
H	-9.0548	5.7098	7.7246
H	-9.2147	4.2004	8.6538
H	-10.1173	3.8420	5.1195
H	-10.7204	2.5039	4.1452
H	-9.9966	0.6774	3.3260
H	-9.7204	-0.9390	3.9095
H	-12.0673	0.8798	4.7858
H	-12.1797	-0.5057	3.6743
H	-11.7941	-0.7553	5.3915
H	-8.9667	-2.2833	7.1529
H	-10.0024	-1.9531	5.7695
H	-6.2515	-0.3557	8.5815
H	-6.9638	-1.7079	7.7465
H	-9.0046	-1.5980	9.2563
H	-7.5055	-1.8149	10.1901
H	-8.2963	-0.2249	10.1089
H	0.7094	0.2786	-8.9752
H	1.4235	-1.8490	-7.9018
H	-2.5339	-3.4610	-8.4863
H	-3.2390	-1.3344	-9.5355
H	-2.7791	0.8114	-10.4127
H	1.8742	-4.0741	-8.5091
H	2.5831	-6.2695	-7.6183
H	2.1658	-8.2796	-6.4888
H	-1.1718	-6.6769	-5.5577
H	-1.8894	-4.4625	-6.4386
H	1.3237	4.4856	-5.0108
H	2.8917	4.1926	-3.1153
H	5.6904	6.8535	-5.0350
H	4.1091	7.1361	-6.9349
H	0.7403	5.4123	-7.1775
H	7.1074	5.2262	-4.0896
H	8.7244	5.1039	-2.2225
H	9.2724	5.0873	0.0569
H	5.4965	5.3037	0.6159
H	3.8629	5.4258	-1.2573
H	-4.9891	7.7940	-3.6618
H	-6.0352	6.9288	-1.5922
H	-6.4701	3.0570	-3.4395
H	-5.4243	3.9382	-5.5197
H	-4.4245	7.5821	-5.9641
H	-5.7221	5.4312	0.2454
H	-6.9657	4.6680	2.2631
H	-10.1696	2.6178	2.0698
H	-9.7523	2.5688	-0.2537
H	-8.5232	3.3222	-2.2657
H	6.0338	-0.2700	2.9328
H	5.0310	-2.3774	2.1068
H	8.4146	-4.5735	3.6339
H	9.4020	-2.4531	4.4733
H	7.8013	0.9585	4.0674
H	6.6858	-6.0715	4.0149
H	5.8746	-8.2225	3.1058
H	4.8869	-9.5353	1.4118
H	4.5124	-6.2291	-0.4556
H	5.3379	-4.0624	0.4449
H	-6.5547	-2.9927	3.1212
H	-5.0892	-4.4645	1.7512
H	-4.8866	-7.2820	5.0104
H	-6.3553	-5.8193	6.3588
H	-7.6279	-3.8781	6.6778
H	-2.8884	-5.3031	1.5327
H	-1.4769	-6.8313	0.1906
H	-0.7723	-9.0420	-0.4730
H	-3.5439	-10.2222	1.8373
H	-4.9836	-8.6972	3.1741
H	-3.1220	1.7188	7.3007
H	-0.7130	2.1990	6.9351
H	-1.1282	5.8919	9.1294
H	-3.5350	5.4327	9.4322
H	-5.4708	4.1358	9.0842
H	0.4472	6.5161	7.6479
H	2.8549	6.9985	7.3917
H	5.1137	6.3467	7.3249
H	3.7436	2.7933	7.5789
H	1.3310	2.2991	7.8931
