360

C	-9.4426	-9.9729	-2.5413
N	-9.3419	-8.5792	-2.0916
C	-8.1660	-10.7100	-2.9077
C	-7.6926	-10.6801	-4.2361
C	-6.5041	-11.3653	-4.5704
C	-5.7636	-12.0336	-3.5731
C	-6.2426	-12.0584	-2.2454
C	-7.4296	-11.3777	-1.9032
C	-7.9243	-11.3555	-0.4674
C	-8.8565	-12.5303	-0.1270
C	-5.4453	-12.7946	-1.1751
N	-4.3574	-11.9582	-0.6706
C	-4.4562	-12.7205	-3.9241
C	-4.6424	-14.1886	-4.3464
C	-5.9940	-11.3366	-6.0008
N	-5.1030	-10.2431	-6.4053
C	-8.4543	-9.9129	-5.3020
C	-9.5085	-10.7685	-6.0261
C	-5.2948	3.7395	12.5856
N	-5.7173	3.4679	11.2057
C	-3.8314	3.5498	12.9493
C	-2.9191	4.6149	12.7792
C	-1.5626	4.4320	13.1199
C	-1.1039	3.1807	13.5843
C	-2.0200	2.1196	13.7467
C	-3.3789	2.2931	13.4029
C	-4.3466	1.1282	13.5100
C	-5.0210	1.0251	14.8883
C	-1.5310	0.7656	14.2277
N	-1.0562	-0.1978	13.2265
C	0.3689	2.9755	13.8904
C	0.7394	3.3040	15.3470
C	-0.5665	5.5701	12.9337
N	0.1317	5.4287	11.6571
C	-3.4044	5.9433	12.2274
C	-3.8284	6.9365	13.3222
C	-2.1451	12.2940	-6.7869
N	-1.3261	11.7684	-5.6861
C	-3.0940	11.3435	-7.4955
C	-4.4034	11.1599	-6.9979
C	-5.2800	10.2662	-7.6485
C	-4.8354	9.5151	-8.7591
C	-3.5281	9.7080	-9.2525
C	-2.6459	10.6026	-8.6094
C	-1.2210	10.7602	-9.1093
C	-1.0719	11.8677	-10.1673
C	-3.0443	8.9164	-10.4609
N	-2.2969	7.7348	-10.0384
C	-5.7649	8.5019	-9.4039
C	-6.5966	9.0817	-10.5599
C	-6.6911	10.0703	-7.1210
N	-6.9258	9.0306	-6.1113
C	-4.8619	11.9134	-5.7615
C	-5.5064	13.2735	-6.0814
C	13.8094	0.4042	-0.8768
N	12.7000	1.2887	-0.5011
C	13.5035	-1.0354	-1.2544
C	13.4825	-2.0334	-0.2570
C	13.2196	-3.3738	-0.6141
C	12.9348	-3.7093	-1.9551
C	12.9460	-2.7032	-2.9452
C	13.2014	-1.3606	-2.5957
C	13.1463	-0.2633	-3.6444
C	14.4841	-0.0345	-4.3677
C	12.6450	-3.0711	-4.3924
N	11.2033	-3.1513	-4.6210
C	12.6099	-5.1446	-2.3295
C	13.8537	-5.9724	-2.6975
C	13.1865	-4.4479	0.4594
N	11.9080	-4.7293	1.1242
C	13.7395	-1.6654	1.1936
C	15.2243	-1.7504	1.5865
C	-6.5106	2.9328	8.4569
C	-6.8016	2.6700	7.1258
C	-5.7836	2.2619	6.2307
C	-6.0763	1.9905	4.8667
C	-6.3078	1.7518	3.6921
C	-6.5439	1.4719	2.3157
C	-6.8171	0.1561	1.8931
C	-7.0179	-0.1317	0.5290
C	-7.2626	-1.4689	0.1010
C	-7.4516	-2.6142	-0.2779
C	-7.6495	-3.9498	-0.7246
C	-6.5559	-4.7302	-1.1570
C	-6.7523	-6.0396	-1.5853
C	-8.0350	-6.6141	-1.6010
C	-8.1969	-8.0042	-2.0507
C	-9.1280	-5.8339	-1.1761
C	-8.9419	-4.5277	-0.7457
C	-6.9521	0.9123	-0.4139
C	-6.6848	2.2331	-0.0052
C	-6.5970	3.2805	-0.9660
C	-6.4979	4.1799	-1.7858
C	-6.3671	5.2187	-2.7472
C	-5.1091	5.5184	-3.3125
C	-4.9889	6.5289	-4.2623
C	-6.1088	7.2702	-4.6782
C	-5.9422	8.3246	-5.6888
C	-7.3631	6.9752	-4.1093
C	-7.4935	5.9698	-3.1619
C	-6.4839	2.5060	1.3618
C	-4.4668	2.1292	6.7202
C	-4.1848	2.3939	8.0566
C	-5.1958	2.7998	8.9454
C	-4.8494	3.0792	10.3455
C	-0.4755	-0.3228	9.6114
C	-0.0254	-1.1566	8.5922
C	0.3879	-2.4751	8.8812
C	0.8391	-3.3330	7.8423
C	1.2195	-4.0580	6.9365
C	1.6491	-4.8726	5.8506
C	2.9153	-4.6688	5.2687
C	3.3314	-5.4389	4.1653
C	4.6104	-5.2155	3.5800
C	5.7089	-5.0135	3.0874
C	6.9911	-4.7802	2.5207
C	7.1690	-3.8140	1.5080
C	8.4292	-3.5967	0.9585
C	9.5477	-4.3288	1.3930
C	10.8580	-4.0816	0.7761
C	9.3712	-5.2897	2.4073
C	8.1191	-5.5136	2.9612
C	2.4675	-6.4183	3.6412
C	1.1976	-6.6335	4.2135
C	0.3110	-7.5869	3.6473
C	-0.4707	-8.3697	3.1299
C	-1.3972	-9.2404	2.5054
C	-2.4361	-9.8444	3.2468
C	-3.3594	-10.6705	2.6149
C	-3.2887	-10.9116	1.2311
C	-4.3084	-11.7503	0.5934
C	-2.2469	-10.3169	0.4917
C	-1.3152	-9.5008	1.1146
C	0.7996	-5.8644	5.3250
C	0.3383	-2.9219	10.2239
C	-0.1088	-2.0814	11.2332
C	-0.5266	-0.7680	10.9440
C	-1.0079	0.1433	11.9915
C	-3.3305	-8.0874	-7.1855
C	-2.4885	-7.0259	-7.4819
C	-2.1690	-6.0614	-6.4963
C	-1.2999	-4.9795	-6.7994
C	-0.5467	-4.0562	-7.0630
C	0.3262	-2.9684	-7.3455
C	1.7081	-3.0819	-7.1013
C	2.5739	-2.0002	-7.3610
C	3.9635	-2.1110	-7.0979
C	5.1570	-2.1863	-6.8516
C	6.5373	-2.2652	-6.5439
C	7.4754	-1.4501	-7.2146
C	8.8261	-1.5230	-6.8913
C	9.2855	-2.3966	-5.8895
C	10.7131	-2.4259	-5.5577
C	8.3515	-3.2162	-5.2252
C	7.0043	-3.1576	-5.5469
C	2.0449	-0.7962	-7.8635
C	0.6640	-0.6681	-8.1041
C	0.1322	0.5630	-8.5679
C	-0.3316	1.6301	-8.9371
C	-0.8938	2.8659	-9.3405
C	-0.3334	4.0921	-8.9057
C	-0.9087	5.2997	-9.2688
C	-2.0552	5.3304	-10.0868
C	-2.6999	6.5934	-10.4597
C	-2.6004	4.1147	-10.5360
C	-2.0368	2.8982	-10.1678
C	-0.1892	-1.7611	-7.8527
C	-2.7253	-6.2000	-5.2068
C	-3.5682	-7.2695	-4.9198
C	-3.8829	-8.2289	-5.8976
C	-4.7727	-9.3455	-5.5519
C	0.4791	7.4752	8.6357
C	1.0161	7.4804	7.3533
C	1.7891	6.3886	6.9020
C	2.3187	6.3738	5.5883
C	2.7517	6.3455	4.4468
C	3.2201	6.2893	3.1079
C	4.3507	5.5164	2.7776
C	4.7994	5.4395	1.4457
C	5.9448	4.6605	1.1173
C	6.9249	3.9896	0.8356
C	8.0672	3.2081	0.5133
C	9.3631	3.7787	0.5380
C	10.4785	3.0162	0.2222
C	10.3449	1.6598	-0.1341
C	11.5029	0.8297	-0.4922
C	9.0591	1.0921	-0.1543
C	7.9340	1.8475	0.1630
C	4.1027	6.1346	0.4385
C	2.9685	6.9079	0.7539
C	2.2454	7.5742	-0.2752
C	1.6066	8.1185	-1.1618
C	0.8578	8.7288	-2.2036
C	0.0039	7.9543	-3.0182
C	-0.7233	8.5542	-4.0414
C	-0.6229	9.9342	-4.2885
C	-1.4048	10.5257	-5.3815
C	0.2264	10.7081	-3.4743
C	0.9514	10.1202	-2.4478
C	2.5401	6.9904	2.0917
C	2.0068	5.3002	7.7834
C	1.4588	5.2996	9.0574
C	0.6814	6.3869	9.5033
C	0.0616	6.4069	10.8320
H	-10.1465	-9.9694	-3.3869
H	-9.9860	-10.5084	-1.7483
H	-7.0681	-11.3554	0.2202
H	-8.4433	-10.4076	-0.2704
H	-9.2031	-12.4716	0.9145
H	-9.7410	-12.5380	-0.7794
H	-8.3489	-13.4956	-0.2645
H	-4.9893	-13.6932	-1.6168
H	-6.1057	-13.1507	-0.3647
H	-3.9546	-12.1701	-4.7322
H	-3.7714	-12.6595	-3.0681
H	-5.2927	-14.2723	-5.2289
H	-3.6773	-14.6547	-4.5902
H	-5.1122	-14.7803	-3.5476
H	-6.8333	-11.3221	-6.7122
H	-5.4594	-12.2676	-6.2414
H	-7.7492	-9.5021	-6.0378
H	-8.9402	-9.0357	-4.8529
H	-9.0482	-11.6360	-6.5199
H	-10.0353	-10.1810	-6.7912
H	-10.2565	-11.1600	-5.3221
H	-5.6188	4.7682	12.8051
H	-5.9368	3.1183	13.2278
H	-3.8205	0.1891	13.2887
H	-5.1168	1.2132	12.7310
H	-5.5925	1.9347	15.1220
H	-5.7108	0.1704	14.9273
H	-4.2777	0.8995	15.6884
H	-0.7070	0.8834	14.9480
H	-2.3139	0.2483	14.8014
H	0.6499	1.9362	13.6710
H	0.9702	3.5847	13.2028
H	0.1806	2.6748	16.0544
H	1.8123	3.1457	15.5251
H	0.5055	4.3492	15.5960
H	0.1907	5.5253	13.7304
H	-1.0604	6.5527	13.0307
H	-2.6206	6.3954	11.6053
H	-4.2453	5.7747	11.5410
H	-4.1797	7.8820	12.8852
H	-4.6406	6.5245	13.9380
H	-2.9945	7.1627	14.0016
H	-1.4407	12.7473	-7.5005
H	-2.6929	13.1534	-6.3726
H	-0.5540	10.9736	-8.2625
H	-0.8701	9.8023	-9.5153
H	-1.3793	12.8453	-9.7694
H	-0.0298	11.9508	-10.5066
H	-1.7001	11.6696	-11.0476
H	-2.3605	9.5419	-11.0539
H	-3.8853	8.6595	-11.1288
H	-6.4381	8.0829	-8.6438
H	-5.1823	7.6445	-9.7662
H	-7.2583	8.3180	-10.9926
H	-7.2220	9.9189	-10.2192
H	-5.9523	9.4693	-11.3617
H	-7.0756	11.0055	-6.6869
H	-7.3874	9.8561	-7.9457
H	-4.0111	12.0631	-5.0824
H	-5.5732	11.2967	-5.1948
H	-6.3879	13.1558	-6.7275
H	-5.8239	13.7854	-5.1622
H	-4.8051	13.9324	-6.6130
H	14.5223	0.4405	-0.0394
H	14.3391	0.9144	-1.6955
H	12.8190	0.6759	-3.1781
H	12.3667	-0.4978	-4.3817
H	14.8219	-0.9441	-4.8840
H	14.3978	0.7691	-5.1129
H	15.2767	0.2441	-3.6589
H	13.0658	-4.0646	-4.6084
H	13.1364	-2.3701	-5.0897
H	11.8948	-5.1509	-3.1626
H	12.0830	-5.6321	-1.4974
H	14.5678	-6.0161	-1.8628
H	13.5764	-7.0024	-2.9622
H	14.3891	-5.5353	-3.5528
H	13.9032	-4.2196	1.2620
H	13.5362	-5.4107	0.0572
H	13.1488	-2.3179	1.8515
H	13.3670	-0.6506	1.3903
H	15.3693	-1.4764	2.6409
H	15.6185	-2.7662	1.4414
H	15.8394	-1.0774	0.9724
H	-7.2923	3.2484	9.1484
H	-7.8209	2.7751	6.7534
H	-6.8615	-0.6480	2.6262
H	-5.5564	-4.2955	-1.1484
H	-5.8962	-6.6342	-1.9130
H	-7.2649	-8.5217	-2.3459
H	-10.1222	-6.2814	-1.1905
H	-9.7922	-3.9306	-0.4152
H	-7.1026	0.6950	-1.4704
H	-4.2353	4.9476	-2.9982
H	-4.0102	6.7508	-4.6941
H	-4.9112	8.4680	-6.0622
H	-8.2283	7.5547	-4.4323
H	-8.4676	5.7447	-2.7269
H	-6.2698	3.5243	1.6829
H	-3.6752	1.8168	6.0391
H	-3.1613	2.2883	8.4237
H	-3.7843	2.9373	10.6075
H	-0.7941	0.6953	9.3757
H	0.0087	-0.8024	7.5619
H	3.5760	-3.9020	5.6707
H	6.3087	-3.2415	1.1612
H	8.5535	-2.8485	0.1721
H	10.8759	-3.3067	-0.0123
H	10.2406	-5.8553	2.7436
H	7.9889	-6.2605	3.7448
H	2.7791	-7.0089	2.7810
H	-2.5070	-9.6524	4.3172
H	-4.1603	-11.1300	3.1985
H	-5.0574	-12.1930	1.2826
H	-2.1957	-10.5076	-0.5806
H	-0.5130	-9.0394	0.5384
H	-0.1837	-6.0217	5.7657
H	0.6578	-3.9387	10.4538
H	-0.1471	-2.4219	12.2683
H	-1.3214	1.1449	11.6432
H	-3.5790	-8.8329	-7.9412
H	-2.0616	-6.9220	-8.4797
H	2.1115	-4.0120	-6.7040
H	7.1276	-0.7638	-7.9865
H	9.5413	-0.8864	-7.4169
H	11.3565	-1.7651	-6.1751
H	8.7127	-3.8943	-4.4516
H	6.2853	-3.7927	-5.0291
H	2.7072	0.0462	-8.0569
H	0.5510	4.0713	-8.2686
H	-0.4907	6.2456	-8.9237
H	-3.5784	6.4995	-11.1313
H	-3.4869	4.1278	-11.1737
H	-2.4724	1.9597	-10.5105
H	-1.2583	-1.6648	-8.0356
H	-2.4873	-5.4614	-4.4415
H	-3.9929	-7.3688	-3.9182
H	-5.1364	-9.3614	-4.5078
H	-0.1196	8.3243	8.9726
H	0.8444	8.3237	6.6845
H	4.8809	4.9727	3.5580
H	9.4718	4.8288	0.8098
H	11.4775	3.4529	0.2387
H	11.2720	-0.2188	-0.7587
H	8.9437	0.0407	-0.4277
H	6.9416	1.3973	0.1423
H	4.4408	6.0691	-0.5945
H	-0.0784	6.8831	-2.8347
H	-1.3810	7.9459	-4.6666
H	-2.0670	9.8261	-5.9245
H	0.2992	11.7783	-3.6696
H	1.6070	10.7235	-1.8195
H	1.6620	7.5843	2.3412
H	2.6060	4.4561	7.4407
H	1.6148	4.4585	9.7335
H	-0.4928	7.3357	11.0812
