162

C	-4.8702	1.0716	-2.7469
N	-3.6171	1.3171	-3.4619
C	-4.8244	0.5533	-1.3200
C	-4.8069	1.4638	-0.2418
C	-4.8220	0.9781	1.0836
C	-4.7974	-0.4105	1.3342
C	-4.8169	-1.3163	0.2513
C	-4.8027	-0.8376	-1.0769
C	-4.7767	-1.8157	-2.2398
C	-6.1775	-2.2310	-2.7233
C	-4.8699	-2.8111	0.5167
N	-3.6243	-3.5669	0.6503
C	-4.7625	-0.9265	2.7624
C	-6.1610	-1.1396	3.3677
C	-4.8611	1.9548	2.2459
N	-3.6033	2.4279	2.8252
C	-4.7818	2.9592	-0.5045
C	-6.1840	3.5841	-0.6070
C	4.8697	0.9442	-2.7693
N	3.6231	1.1972	-3.4928
C	4.8195	0.4318	-1.3395
C	4.8036	1.3443	-0.2622
C	4.8310	0.8622	1.0647
C	4.8210	-0.5270	1.3163
C	4.8350	-1.4339	0.2342
C	4.8056	-0.9584	-1.0946
C	4.7678	-1.9389	-2.2547
C	6.1628	-2.3561	-2.7532
C	4.8748	-2.9274	0.5028
N	3.6147	-3.6601	0.6387
C	4.8026	-1.0419	2.7454
C	6.2066	-1.2517	3.3391
C	4.8844	1.8427	2.2243
N	3.6387	2.3356	2.8133
C	4.7706	2.8383	-0.5316
C	6.1698	3.4678	-0.6511
C	0.0020	1.0875	-2.9611
C	1.2239	1.2907	-3.6220
C	2.4923	1.0266	-2.9186
C	1.2193	1.7449	-4.9485
C	0.0052	1.9979	-5.6145
C	0.0029	2.4543	-6.9622
C	-0.0013	2.8462	-8.1230
Si	0.0104	3.4275	-9.8635
C	-1.5666	4.3957	-10.1817
C	1.5167	4.5215	-10.1090
C	0.0949	1.9268	-10.9897
C	-1.2097	1.7913	-4.9336
C	-1.2188	1.3339	-3.6084
C	-2.4893	1.1013	-2.8975
C	0.0126	2.0055	2.4116
C	1.2400	2.4361	2.9409
C	2.5059	1.9412	2.3671
C	1.2441	3.3467	4.0073
C	0.0355	3.8306	4.5428
C	0.0447	4.7520	5.6272
C	0.0493	5.5414	6.5642
Si	0.0581	6.7094	7.9781
C	-0.0852	5.7144	9.5636
C	-1.4043	7.8715	7.7938
C	1.6729	7.6655	7.9473
C	-1.1842	3.3915	3.9956
C	-1.2028	2.4790	2.9319
C	-2.4823	2.0187	2.3625
C	0.0035	-3.0687	0.5286
C	-1.2278	-3.7303	0.6597
C	-2.4919	-2.9822	0.5322
C	-1.2408	-5.1082	0.9166
C	-0.0380	-5.8266	1.0483
C	-0.0636	-7.2238	1.3198
C	-0.0904	-8.4250	1.5595
Si	-0.1045	-10.2198	1.9354
C	-1.6780	-10.6198	2.8766
C	-0.0512	-11.1673	0.3163
C	1.4072	-10.6087	2.9772
C	1.1871	-5.1460	0.9162
C	1.2143	-3.7686	0.6557
C	2.4949	-3.0516	0.5217
H	-5.4340	2.0151	-2.7954
H	-5.4491	0.3869	-3.3847
H	-4.2093	-2.7127	-1.9545
H	-4.2175	-1.3774	-3.0782
H	-6.7601	-1.3613	-3.0584
H	-6.7535	-2.7114	-1.9199
H	-6.1098	-2.9379	-3.5620
H	-5.4445	-3.3197	-0.2718
H	-5.4441	-3.0162	1.4326
H	-4.2009	-1.8704	2.8010
H	-4.1949	-0.2285	3.3936
H	-6.7387	-0.2046	3.3822
H	-6.7441	-1.8666	2.7850
H	-6.0902	-1.5106	4.3997
H	-5.4363	1.5322	3.0833
H	-5.4243	2.8588	1.9708
H	-4.2235	3.1628	-1.4290
H	-4.2143	3.4644	0.2897
H	-6.7657	3.1312	-1.4222
H	-6.7588	3.4336	0.3176
H	-6.1203	4.6649	-0.7951
H	5.4389	1.8847	-2.8190
H	5.4483	0.2543	-3.4012
H	4.2032	-2.8350	-1.9615
H	4.1996	-1.5019	-3.0878
H	6.7433	-1.4879	-3.0954
H	6.0849	-3.0637	-3.5903
H	6.7466	-2.8367	-1.9555
H	5.4401	-3.4460	-0.2860
H	5.4464	-3.1393	1.4186
H	4.2425	-1.9863	2.7912
H	4.2397	-0.3440	3.3810
H	6.7853	-1.9793	2.7526
H	6.1450	-1.6208	4.3723
H	6.7833	-0.3161	3.3466
H	5.4625	1.4179	3.0585
H	5.4551	2.7394	1.9403
H	4.2101	3.3454	0.2663
H	4.2025	3.0356	-1.4515
H	6.7466	3.0117	-1.4679
H	6.7531	3.3264	0.2697
H	6.0999	4.5470	-0.8462
H	0.0018	0.7306	-1.9271
H	2.4041	0.6775	-1.8718
H	2.1712	1.8980	-5.4556
H	-2.4544	3.7685	-10.0184
H	-1.6396	5.2648	-9.5129
H	-1.5940	4.7608	-11.2193
H	2.4441	3.9680	-9.9043
H	1.5628	4.8924	-11.1439
H	1.4869	5.3905	-9.4367
H	0.1051	2.2363	-12.0456
H	1.0036	1.3389	-10.7981
H	-0.7719	1.2685	-10.8362
H	-2.1603	1.9803	-5.4307
H	-2.4048	0.7290	-1.8585
H	0.0030	1.2943	1.5806
H	2.4133	1.2211	1.5317
H	2.1997	3.6764	4.4130
H	-1.0164	5.1308	9.5813
H	0.7547	5.0128	9.6662
H	-0.0829	6.3793	10.4405
H	-2.3519	7.3145	7.7869
H	-1.3408	8.4402	6.8553
H	-1.4378	8.5902	8.6262
H	1.7775	8.2350	7.0130
H	1.7199	8.3761	8.7861
H	2.5343	6.9874	8.0275
H	-2.1312	3.7540	4.3934
H	-2.4114	1.3042	1.5203
H	0.0205	-1.9937	0.3276
H	-2.3999	-1.8976	0.3311
H	-2.2001	-5.6142	1.0170
H	-2.5683	-10.3713	2.2818
H	-1.7211	-11.6915	3.1222
H	-1.7313	-10.0531	3.8169
H	-0.0530	-12.2520	0.5019
H	-0.9219	-10.9280	-0.3103
H	0.8542	-10.9216	-0.2563
H	2.3318	-10.3530	2.4405
H	1.3952	-10.0400	3.9178
H	1.4435	-11.6797	3.2269
H	2.1309	-5.6805	1.0164
H	2.4256	-1.9661	0.3176
