141

C	-5.1028	1.2070	-2.2295
N	-3.9139	1.6388	-2.9672
C	-4.9317	0.4674	-0.9143
C	-4.8296	-0.9401	-0.9080
C	-4.7299	-1.6285	0.3201
C	-4.6758	-0.9134	1.5356
C	-4.7690	0.4953	1.5218
C	-4.8723	1.1892	0.2971
C	-4.9318	2.7066	0.2840
C	-6.3649	3.2594	0.3728
C	-4.7591	1.2662	2.8300
N	-3.4825	1.7052	3.3965
C	-4.5341	-1.6563	2.8531
C	-5.8838	-2.0382	3.4872
C	-4.6844	-3.1461	0.3330
N	-3.3915	-3.8257	0.2588
C	-4.8434	-1.7114	-2.2158
C	-6.2568	-2.1192	-2.6669
C	4.6101	1.6746	-2.8634
N	3.2978	1.9623	-3.4453
C	4.6988	0.9407	-1.5361
C	4.7578	-0.4700	-1.5174
C	4.9071	-1.1477	-0.2885
C	4.9376	-0.4254	0.9237
C	4.8776	0.9846	0.8990
C	4.7347	1.6694	-0.3276
C	4.6405	3.1858	-0.3483
C	6.0109	3.8781	-0.4555
C	4.9623	1.7672	2.1972
N	3.7312	2.0909	2.9197
C	5.0463	-1.1614	2.2477
C	6.4987	-1.3905	2.7007
C	5.0336	-2.6613	-0.2691
N	3.8236	-3.4797	-0.1689
C	4.6743	-1.2549	-2.8155
C	6.0447	-1.5060	-3.4692
C	1.2857	-9.4932	0.5440
S	-0.2057	-9.8627	-0.2304
C	-0.5968	-8.2033	-0.4082
C	0.3869	-7.3755	0.1070
C	1.4723	-8.1372	0.6515
C	0.3205	-5.9015	0.0944
C	1.4910	-5.1307	0.0156
C	1.4378	-3.7283	-0.0047
C	2.6706	-2.9276	-0.0996
C	0.1906	-3.0872	0.0516
C	-0.9929	-3.8376	0.1304
C	-2.3004	-3.1590	0.1959
C	-0.9147	-5.2380	0.1574
C	1.0693	5.2810	7.9618
S	-0.3181	4.6262	8.7413
C	-0.6715	3.6165	7.4020
C	0.2470	3.7658	6.3766
C	1.2512	4.7310	6.7169
C	0.1957	3.0242	5.1025
C	1.3750	2.7234	4.4044
C	1.3441	2.0160	3.1929
C	2.5938	1.7059	2.4747
C	0.1085	1.5951	2.6773
C	-1.0852	1.8852	3.3577
C	-2.3790	1.4490	2.8003
C	-1.0295	2.6038	4.5610
C	-1.5488	5.0596	-8.0273
S	-0.1169	4.5172	-8.8124
C	0.3229	3.5414	-7.4734
C	-0.6006	3.6187	-6.4442
C	-1.6805	4.4989	-6.7815
C	-0.4845	2.8936	-5.1653
C	-1.6318	2.4898	-4.4658
C	-1.5336	1.8035	-3.2457
C	-2.7427	1.3817	-2.5188
C	-0.2651	1.5122	-2.7216
C	0.8958	1.9061	-3.4046
C	2.2251	1.6135	-2.8393
C	0.7736	2.5968	-4.6189
H	-5.6927	0.6031	-2.9354
H	-5.7121	2.1115	-2.0842
H	-4.4489	3.0877	-0.6267
H	-4.3336	3.1073	1.1143
H	-6.8651	2.9284	1.2940
H	-6.9813	2.9114	-0.4680
H	-6.3651	4.3582	0.3624
H	-5.2539	0.6836	3.6216
H	-5.3774	2.1724	2.7465
H	-3.9328	-2.5638	2.7028
H	-3.9579	-1.0455	3.5620
H	-6.4712	-2.6850	2.8202
H	-5.7354	-2.5738	4.4353
H	-6.4967	-1.1489	3.6916
H	-5.1770	-3.5371	1.2360
H	-5.2870	-3.5549	-0.4918
H	-4.3678	-1.1113	-3.0039
H	-4.2167	-2.6093	-2.1215
H	-6.7486	-2.7564	-1.9184
H	-6.9004	-1.2399	-2.8105
H	-6.2226	-2.6734	-3.6153
H	5.1689	1.1292	-3.6386
H	5.1276	2.6435	-2.8001
H	4.0032	3.5055	-1.1845
H	4.1239	3.5365	0.5560
H	5.8996	4.9714	-0.4683
H	6.6610	3.6126	0.3902
H	6.5401	3.5796	-1.3715
H	5.4772	2.7259	2.0347
H	5.6054	1.2432	2.9201
H	4.5051	-0.6044	3.0253
H	4.5292	-2.1285	2.1764
H	7.0351	-0.4390	2.8236
H	6.5320	-1.9253	3.6602
H	7.0602	-1.9810	1.9630
H	5.5613	-3.0136	-1.1680
H	5.6832	-2.9811	0.5593
H	4.1761	-2.2174	-2.6333
H	4.0239	-0.7249	-3.5254
H	6.5572	-0.5623	-3.7032
H	5.9363	-2.0742	-4.4035
H	6.7091	-2.0735	-2.8023
H	1.9364	-10.2922	0.8873
H	-1.5159	-7.9126	-0.9089
H	2.3430	-7.6910	1.1292
H	2.4702	-5.6044	-0.0540
H	2.5365	-1.8289	-0.1102
H	0.1410	-1.9947	0.0340
H	-2.2782	-2.0523	0.1890
H	-1.8449	-5.7985	0.2503
H	1.6656	6.0427	8.4556
H	-1.5175	2.9363	7.4425
H	2.0599	5.0227	6.0490
H	2.3484	3.0174	4.7966
H	2.4867	1.1251	1.5386
H	0.0745	1.0398	1.7356
H	-2.3346	0.8923	1.8446
H	-1.9703	2.8450	5.0557
H	-2.2077	5.7683	-8.5205
H	1.2230	2.9346	-7.5154
H	-2.5066	4.7256	-6.1095
H	-2.6279	2.6843	-4.8629
H	-2.5758	0.8357	-1.5707
H	-0.1808	0.9782	-1.7708
H	2.2368	1.0824	-1.8681
H	1.6881	2.9212	-5.1154
