126
00000001
O       4.704000    0.830000   -1.007000
O       0.479000    1.246000   -5.362000
O       3.229000    3.856000    0.762000
O      -1.006000    3.682000   -3.534000
O       0.977000    4.215000    3.491000
O      -3.423000    3.434000   -0.602000
O      -0.160000    1.161000    4.711000
O      -5.084000    0.755000    1.253000
O       0.513000   -2.712000    4.343000
O      -4.370000   -2.817000    0.676000
O       2.394000   -4.282000    1.764000
O      -2.426000   -4.170000   -1.715000
O       4.580000   -2.886000   -0.615000
O      -0.318000   -2.264000   -4.231000
N       3.825000    2.204000   -2.660000
N       4.287000    0.066000   -3.139000
N       2.260000    2.396000   -4.510000
N       2.423000    0.204000   -4.735000
N       1.519000    5.178000   -0.095000
N       2.870000    4.119000   -1.497000
N      -0.206000    4.956000   -1.768000
N       1.210000    4.216000   -3.283000
N      -1.297000    4.267000    3.235000
N      -0.053000    5.274000    1.748000
N      -3.103000    4.004000    1.611000
N      -1.777000    4.897000    0.065000
N      -2.176000    0.065000    4.455000
N      -2.134000    2.274000    4.333000
N      -4.298000   -0.058000    3.263000
N      -3.979000    2.081000    2.777000
N      -0.984000   -4.166000    3.352000
N      -1.764000   -2.316000    4.309000
N      -2.893000   -4.168000    1.838000
N      -3.715000   -2.372000    2.847000
N       1.674000   -5.290000   -0.182000
N       0.275000   -5.176000    1.552000
N      -0.285000   -5.012000   -1.572000
N      -1.697000   -5.369000    0.110000
N       3.848000   -2.270000   -2.715000
N       3.039000   -4.104000   -1.805000
N       1.994000   -2.124000   -4.287000
N       1.045000   -3.810000   -3.169000
C       4.301000    0.997000   -2.166000
C       3.606000    2.144000   -4.067000
H       4.268000    2.701000   -4.565000
C       3.793000    0.620000   -4.373000
H       4.433000    0.472000   -5.125000
C       1.608000    1.298000   -4.903000
C       4.052000    3.464000   -1.945000
H       4.627000    3.284000   -1.161000
H       4.548000    4.084000   -2.542000
C       1.660000    3.718000   -4.566000
H       2.324000    4.355000   -4.937000
H       0.888000    3.694000   -5.187000
C       2.594000    4.361000   -0.175000
C       1.051000    5.566000   -1.367000
H       1.017000    6.560000   -1.454000
C       2.061000    4.937000   -2.379000
H       2.602000    5.632000   -2.849000
C      -0.090000    4.207000   -2.930000
C       1.155000    5.839000    1.136000
H       1.006000    6.800000    0.953000
H       1.906000    5.765000    1.777000
C      -1.473000    5.401000   -1.256000
H      -2.186000    5.119000   -1.880000
H      -1.473000    6.392000   -1.226000
C      -0.046000    4.525000    2.885000
C      -2.256000    4.909000    2.368000
H      -2.794000    5.590000    2.861000
C      -1.386000    5.554000    1.308000
H      -1.549000    6.539000    1.260000
C      -2.828000    4.036000    0.268000
C      -1.636000    3.632000    4.484000
H      -2.326000    4.176000    4.942000
H      -0.834000    3.616000    5.061000
C      -4.264000    3.342000    2.153000
H      -4.687000    3.940000    2.821000
H      -4.917000    3.195000    1.422000
C      -1.364000    1.169000    4.509000
C      -3.563000    0.459000    4.415000
H      -4.031000    0.251000    5.274000
C      -3.519000    1.954000    4.143000
H      -4.104000    2.460000    4.776000
C      -4.497000    0.901000    2.318000
C      -1.754000   -1.161000    5.147000
H      -0.839000   -1.031000    5.502000
H      -2.357000   -1.318000    5.918000
C      -4.761000   -1.404000    3.142000
H      -5.442000   -1.444000    2.423000
H      -5.203000   -1.663000    3.988000
C      -0.620000   -3.032000    4.018000
C      -2.413000   -4.289000    3.198000
H      -2.758000   -5.118000    3.637000
C      -2.960000   -3.016000    3.881000
H      -3.540000   -3.248000    4.660000
C      -3.719000   -3.094000    1.669000
C      -0.046000   -5.175000    2.957000
H      -0.416000   -6.062000    3.197000
H       0.790000   -5.048000    3.471000
C      -2.884000   -5.281000    0.892000
H      -2.996000   -6.127000    1.394000
H      -3.661000   -5.189000    0.284000
C       1.534000   -4.849000    1.111000
C       0.463000   -5.888000   -0.683000
H       0.625000   -6.786000   -1.089000
C      -0.439000   -5.967000    0.564000
H      -0.567000   -6.911000    0.870000
C      -1.565000   -4.782000   -1.119000
C       2.922000   -5.239000   -0.900000
H       3.023000   -6.075000   -1.421000
H       3.665000   -5.202000   -0.247000
C       0.051000   -4.815000   -2.964000
H       0.378000   -5.669000   -3.340000
H      -0.769000   -4.563000   -3.459000
C       3.892000   -3.058000   -1.614000
C       3.109000   -2.896000   -3.815000
H       3.718000   -3.160000   -4.562000
C       2.479000   -4.113000   -3.144000
H       2.689000   -4.959000   -3.633000
C       0.803000   -2.678000   -3.936000
C       4.829000   -1.224000   -2.978000
H       5.477000   -1.203000   -2.231000
H       5.328000   -1.460000   -3.799000
C       2.113000   -1.098000   -5.294000
H       1.261000   -1.039000   -5.797000
H       2.824000   -1.355000   -5.931000
