108

N	-3.9400	-3.1963	-2.7557
N	-4.8533	-0.4644	-3.0937
N	4.2992	-2.3939	-3.0200
N	-0.6751	-3.0159	4.8772
N	-1.0860	-4.9544	2.7583
N	-0.5394	4.2773	-3.8400
N	2.3004	3.6930	-3.7953
N	3.6190	1.7450	4.1461
N	2.3723	-4.5342	-2.6739
N	-3.9731	3.8678	1.6085
N	5.1740	1.9157	1.7034
N	-2.6985	3.0604	4.0855
C	-2.1737	-3.7164	-1.1920
C	-3.4128	1.3911	-2.5246
C	4.0879	-0.3369	-1.7712
C	-0.5907	-0.6534	4.3796
C	-1.8458	-4.0598	0.1280
C	-3.9821	1.5729	-1.2524
C	3.4426	0.3485	-2.8157
C	0.8142	-0.6085	4.3441
C	-0.5289	-4.4109	0.4712
C	-3.5794	2.6384	-0.4342
C	3.1297	1.7101	-2.6906
C	1.4868	0.6094	4.1682
C	0.4642	-4.4067	-0.5193
C	-2.5874	3.5227	-0.8935
C	3.4566	2.3869	-1.5029
C	0.7416	1.7919	4.0178
C	0.1508	-4.0652	-1.8463
C	-2.0104	3.3543	-2.1601
C	4.0994	1.7156	-0.4524
C	-0.6595	1.7634	4.0509
C	-1.1678	-3.7165	-2.1737
C	-2.4252	2.2814	-2.9691
C	4.4082	0.3518	-0.5916
C	-1.3196	0.5353	4.2277
C	-3.5712	-3.3751	-1.5249
C	-3.8429	0.2893	-3.4079
C	4.4455	-1.7639	-1.8947
C	-1.3135	-1.9233	4.5872
C	-5.3092	-2.8664	-3.1430
C	-5.3271	-1.5617	-3.9330
C	4.6455	-3.8017	-3.2028
C	-1.3384	-4.2987	5.1010
C	-0.1711	-4.7973	1.8516
C	-4.2137	2.8153	0.8881
C	2.4736	2.4061	-3.8150
C	2.9631	0.6250	4.1593
C	-0.7915	-5.3440	4.1361
C	-4.5797	4.0993	2.9179
C	1.6674	4.4345	-4.8826
C	5.0783	1.8202	4.1456
C	1.1797	-4.0778	-2.9061
C	-0.9882	4.3147	-2.6226
C	4.4509	2.4618	0.7733
C	-1.4117	3.0265	3.9129
C	3.4255	-4.5800	-3.6850
C	0.4632	5.2071	-4.3541
C	5.5587	2.6078	2.9306
C	-3.4914	4.2824	3.9700
H	-5.9749	-2.7726	-2.2552
H	-5.7051	-3.6823	-3.7838
H	-2.6211	-4.0583	0.8852
H	-4.7465	0.8906	-0.8975
H	3.1903	-0.1734	-3.7306
H	1.3875	-1.5212	4.4591
H	-4.7064	-1.6737	-4.8498
H	-6.3695	-1.3450	-4.2484
H	1.4805	-4.6765	-0.2549
H	-2.2676	4.3491	-0.2692
H	3.2185	3.4383	-1.3958
H	1.2517	2.7391	3.8809
H	5.0264	-4.2551	-2.2597
H	5.4469	-3.8756	-3.9671
H	-1.4094	-3.4525	-3.1965
H	-1.9851	2.1411	-3.9493
H	4.9040	-0.1769	0.2142
H	-2.4032	0.5018	4.2545
H	-2.4418	-4.2157	4.9735
H	-4.2975	-3.2947	-0.7233
H	-3.3149	0.1265	-4.3406
H	4.8564	-2.2795	-1.0336
H	-2.3958	-1.9306	4.5149
H	-1.1376	-4.6265	6.1421
H	0.8710	-4.9692	2.0954
H	-4.9051	2.0593	1.2437
H	2.1534	1.8296	-4.6760
H	3.4990	-0.3174	4.1836
H	-1.2813	-6.3190	4.3429
H	0.3027	-5.4662	4.3007
H	-5.2464	3.2589	3.2137
H	-5.1934	5.0236	2.8680
H	1.3428	3.7582	-5.7050
H	2.4031	5.1539	-5.3006
H	5.5403	0.8079	4.1376
H	5.4092	2.3419	5.0686
H	0.9195	-3.7184	-3.8958
H	-0.6279	5.0703	-1.9332
H	4.1134	3.4866	0.8803
H	-0.8709	3.9384	3.6849
H	3.0783	-4.1612	-4.6565
H	3.7152	-5.6384	-3.8515
H	0.0157	5.7915	-5.1853
H	0.7971	5.9234	-3.5699
H	5.1408	3.6385	2.9675
H	6.6661	2.6845	2.9651
H	-3.9688	4.4914	4.9505
H	-2.8584	5.1573	3.7017
