150

N	-5.5010	1.4835	1.4696
N	-4.1090	0.7200	4.1501
N	0.4268	-3.8865	4.3973
N	2.1001	2.3349	4.9764
C	-4.3653	1.7447	-0.6497
C	-4.6070	0.4223	-1.0592
H	-5.1251	-0.2631	-0.3988
C	-4.7627	2.2161	0.6918
H	-4.4009	3.1786	1.0365
C	-1.9241	-0.3027	4.3277
C	-1.2500	0.9211	4.4851
H	-1.8041	1.8522	4.4517
C	0.1422	0.9544	4.6466
C	0.8631	-0.2518	4.6604
H	1.9423	-0.2370	4.7609
C	0.2044	-1.4805	4.5038
C	-1.1912	-1.4981	4.3433
H	-1.7078	-2.4406	4.1992
C	-3.3764	-0.3500	4.0682
H	-3.8247	-1.2926	3.7739
C	0.8295	2.2579	4.7213
H	0.2601	3.1602	4.5257
C	0.9994	-2.7219	4.4346
H	2.0811	-2.6482	4.3817
C	-5.8331	1.8693	2.8405
H	-5.2798	2.7874	3.1527
C	-5.5298	0.7362	3.8046
H	-5.8531	-0.2350	3.3582
C	-6.4012	1.0321	5.0161
H	-6.6806	0.0947	5.5441
H	-5.8649	1.7031	5.7243
C	-7.6358	1.7512	4.4656
H	-8.5252	1.0852	4.5121
H	-7.8425	2.6679	5.0601
C	-7.3249	2.1154	3.0116
H	-7.5809	3.1755	2.7968
H	-7.9067	1.4551	2.3302
C	2.8368	3.5977	4.9601
H	2.2024	4.4370	4.5884
C	3.3677	3.9594	6.3391
H	2.6242	4.5586	6.9077
H	3.6096	3.0373	6.9149
C	4.6503	4.7551	6.0877
H	4.4934	5.8299	6.3278
H	5.4754	4.3639	6.7226
C	1.1716	-5.1324	4.2280
H	2.2503	-4.9384	4.0175
C	1.0664	-6.0246	5.4559
H	1.8754	-5.7990	6.1832
H	0.0806	-5.8840	5.9531
N	-2.2249	4.2990	-3.3458
N	0.7492	5.0884	-2.8595
N	3.7531	3.6494	2.6866
N	5.2044	0.4010	-2.7161
C	-3.2020	2.1679	-2.7513
C	-3.6670	2.6117	-1.5019
H	-3.4600	3.6251	-1.1764
C	-2.3897	3.0410	-3.6215
H	-1.9008	2.6071	-4.4867
C	2.2364	3.9759	-1.3099
C	2.7667	3.1094	-2.2800
H	2.3960	3.1431	-3.2975
C	3.7498	2.1693	-1.9375
C	4.2096	2.1056	-0.6109
H	4.9519	1.3666	-0.3305
C	3.6883	2.9637	0.3685
C	2.7045	3.9003	0.0107
H	2.2784	4.5522	0.7639
C	1.1401	4.9096	-1.6340
H	0.6371	5.4271	-0.8236
C	4.2234	1.2152	-2.9602
H	3.7152	1.1809	-3.9178
C	4.1278	2.8112	1.7692
H	4.7504	1.9616	2.0320
C	-1.3499	5.1739	-4.1242
H	-0.7690	4.5978	-4.8841
C	-0.3959	5.9261	-3.2129
H	-0.9419	6.2763	-2.3040
C	0.0227	7.1384	-4.0305
H	0.2734	7.9970	-3.3686
H	0.9076	6.8947	-4.6600
C	-1.1730	7.4581	-4.9299
H	-1.6795	8.3876	-4.5881
H	-0.8354	7.5999	-5.9800
C	-2.1316	6.2691	-4.8321
H	-2.4648	5.9337	-5.8392
H	-3.0231	6.5588	-4.2319
C	5.6381	-0.6253	-3.6632
H	4.9498	-0.6882	-4.5396
C	7.0505	-0.3684	-4.1658
H	7.0388	0.2716	-5.0749
H	7.6579	0.1299	-3.3779
C	7.6358	-1.7513	-4.4655
H	7.7232	-1.9065	-5.5631
H	8.6453	-1.8471	-4.0085
C	4.0843	3.4795	4.1002
H	4.5785	2.4964	4.2882
C	4.9925	4.5894	4.6052
H	6.0630	4.3235	4.4636
H	4.7792	5.5403	4.0664
N	-4.0295	-1.8931	-3.8472
N	-1.8235	-4.0925	-3.8142
N	4.4047	-2.6044	-2.9039
N	1.0495	-5.5002	1.8073
C	-4.1490	-0.0352	-2.3035
C	-3.4504	0.8451	-3.1473
H	-3.0717	0.4958	-4.1004
C	-4.3416	-1.4532	-2.6666
H	-4.7222	-2.1374	-1.9161
C	0.3180	-3.8819	-2.7118
C	-0.1172	-4.4937	-1.5236
H	-1.1490	-4.8112	-1.4242
C	0.7616	-4.6635	-0.4432
C	2.0915	-4.2232	-0.5613
H	2.7724	-4.3291	0.2753
C	2.5395	-3.6116	-1.7403
C	1.6477	-3.4482	-2.8148
H	1.9774	-2.9558	-3.7222
C	-0.6157	-3.6161	-3.8237
H	-0.2870	-2.9850	-4.6420
C	0.2502	-5.2289	0.8211
H	-0.8174	-5.3861	0.9287
C	3.9162	-3.0816	-1.8005
H	4.5095	-3.0669	-0.8928
C	-4.1111	-3.3055	-4.2152
H	-4.3514	-3.9443	-3.3311
C	-2.8100	-3.7720	-4.8449
H	-2.4294	-2.9894	-5.5453
C	-3.2044	-5.0001	-5.6513
H	-2.5337	-5.1326	-6.5276
H	-3.1569	-5.9122	-5.0150
C	-4.6503	-4.7552	-6.0876
H	-4.6966	-4.5427	-7.1781
H	-5.2735	-5.6509	-5.8717
C	-5.1566	-3.5487	-5.2933
H	-6.1531	-3.7488	-4.8435
H	-5.2319	-2.6656	-5.9662
C	0.5736	-5.9665	3.1090
H	-0.5406	-5.9365	3.1704
C	1.0425	-7.3831	3.4069
H	0.3146	-8.1316	3.0252
H	2.0352	-7.5687	2.9389
C	1.1731	-7.4582	4.9300
H	0.3607	-8.0860	5.3593
H	2.1539	-7.9026	5.2090
C	5.7252	-1.9805	-2.9826
H	6.1828	-1.8643	-1.9702
C	6.6759	-2.7784	-3.8616
H	7.2228	-3.5420	-3.2658
H	6.1144	-3.2874	-4.6773
