238
00000001
N       9.026000    0.784000   -1.359000
C       7.990000    0.299000   -1.973000
H       7.862000   -0.775000   -2.053000
C       6.921000    1.182000   -2.478000
C       4.786000    2.823000   -3.319000
C       4.675000    1.423000   -3.373000
H       3.756000    0.957000   -3.706000
C       5.986000    3.394000   -2.863000
H       6.096000    4.470000   -2.820000
C       7.044000    2.582000   -2.442000
H       7.949000    3.050000   -2.077000
C      10.055000   -0.061000   -0.752000
H       9.910000   -1.136000   -1.017000
C       5.735000    0.611000   -2.961000
H       5.616000   -0.465000   -2.994000
C      11.453000    0.364000   -1.174000
H      11.482000    1.460000   -1.368000
H      11.773000   -0.176000   -2.092000
C      12.360000    0.032000    0.013000
N      -1.369000   -9.024000   -0.735000
C      -1.976000   -7.979000   -0.259000
H      -2.056000   -7.841000    0.813000
C      -2.474000   -6.914000   -1.151000
C      -3.310000   -4.790000   -2.809000
C      -3.364000   -4.668000   -1.409000
H      -3.697000   -3.746000   -0.951000
C      -2.853000   -5.994000   -3.370000
H      -2.809000   -6.112000   -4.446000
C      -2.436000   -7.046000   -2.550000
H      -2.072000   -7.956000   -3.011000
C      -0.771000  -10.049000    0.119000
H      -1.032000   -9.892000    1.192000
C      -2.955000   -5.723000   -0.590000
H      -2.990000   -5.596000    0.486000
C      -1.207000  -11.447000   -0.292000
H      -1.402000  -11.486000   -1.388000
H      -2.128000  -11.753000    0.251000
N      -0.740000    1.372000    9.017000
C      -0.263000    1.975000    7.971000
H       0.810000    2.056000    7.834000
C      -1.154000    2.472000    6.905000
C      -2.811000    3.303000    4.777000
C      -1.412000    3.359000    4.657000
H      -0.953000    3.691000    3.735000
C      -3.374000    2.847000    5.982000
H      -4.449000    2.803000    6.099000
C      -2.554000    2.432000    7.036000
H      -3.015000    2.069000    7.946000
C       0.114000    0.776000   10.045000
H       1.188000    1.039000    9.888000
C      -0.593000    2.952000    5.713000
H       0.483000    2.987000    5.587000
C      -0.299000    1.214000   11.442000
H      -1.395000    1.406000   11.479000
H       0.242000    2.136000   11.746000
N      -9.021000   -0.754000   -1.356000
C      -7.978000   -0.279000   -1.966000
H      -7.843000    0.793000   -2.051000
C      -6.913000   -1.171000   -2.463000
C      -4.787000   -2.829000   -3.294000
C      -4.669000   -1.430000   -3.357000
H      -3.749000   -0.971000   -3.696000
C      -5.988000   -3.391000   -2.830000
H      -6.104000   -4.466000   -2.779000
C      -7.042000   -2.571000   -2.415000
H      -7.949000   -3.031000   -2.045000
C     -10.046000    0.100000   -0.758000
H      -9.890000    1.174000   -1.022000
C      -5.724000   -0.610000   -2.950000
H      -5.600000    0.465000   -2.991000
C     -11.445000   -0.312000   -1.191000
H     -11.484000   -1.408000   -1.383000
H     -11.751000    0.229000   -2.113000
N       1.346000    9.024000   -0.803000
C       1.963000    7.990000   -0.320000
H       2.049000    7.864000    0.754000
C       2.467000    6.920000   -1.203000
C       3.304000    4.783000   -2.843000
C       3.366000    4.676000   -1.443000
H       3.705000    3.759000   -0.977000
C       2.840000    5.980000   -3.415000
H       2.790000    6.087000   -4.491000
C       2.422000    7.039000   -2.603000
H       2.051000    7.942000   -3.071000
C       0.739000   10.052000    0.043000
H       1.006000    9.908000    1.117000
C       2.956000    5.737000   -0.632000
H       2.996000    5.621000    0.444000
C       1.158000   11.451000   -0.384000
H       1.349000   11.480000   -1.480000
H       2.076000   11.772000    0.153000
C      -0.030000   12.356000   -0.049000
N       0.799000   -1.343000    9.031000
C       0.315000   -1.964000    7.998000
H      -0.758000   -2.049000    7.871000
C       1.199000   -2.470000    6.930000
C       2.841000   -3.311000    4.795000
C       1.441000   -3.372000    4.687000
H       0.975000   -3.711000    3.770000
C       3.411000   -2.846000    5.992000
H       4.488000   -2.797000    6.100000
C       2.599000   -2.426000    7.050000
H       3.066000   -2.054000    7.953000
C      -0.047000   -0.734000   10.056000
H      -1.122000   -0.999000    9.912000
C       0.629000   -2.960000    5.746000
H      -0.447000   -2.999000    5.629000
C       0.377000   -1.151000   11.456000
H       1.473000   -1.345000   11.487000
H      -0.163000   -2.068000   11.779000
C       0.044000    0.038000   12.360000
N       9.023000   -0.754000    1.357000
C       7.979000   -0.278000    1.964000
H       7.841000    0.795000    2.045000
C       6.915000   -1.170000    2.464000
C       4.792000   -2.827000    3.306000
C       4.672000   -1.427000    3.362000
H       3.751000   -0.969000    3.699000
C       5.994000   -3.389000    2.844000
H       6.111000   -4.464000    2.799000
C       7.046000   -2.569000    2.424000
H       7.954000   -3.030000    2.056000
C      10.048000    0.101000    0.758000
H       9.891000    1.174000    1.021000
C       5.725000   -0.608000    2.950000
H       5.599000    0.467000    2.985000
C      11.446000   -0.311000    1.191000
H      11.485000   -1.407000    1.384000
H      11.753000    0.230000    2.113000
N      -1.366000    9.016000    0.739000
C      -1.973000    7.971000    0.265000
H      -2.058000    7.835000   -0.808000
C      -2.468000    6.906000    1.157000
C      -3.296000    4.779000    2.815000
C      -3.359000    4.660000    1.416000
H      -3.697000    3.739000    0.958000
C      -2.834000    5.981000    3.377000
H      -2.784000    6.097000    4.452000
C      -2.420000    7.035000    2.556000
H      -2.052000    7.943000    3.017000
C      -0.771000   10.043000   -0.116000
H      -1.037000    9.886000   -1.189000
C      -2.954000    5.715000    0.596000
H      -2.995000    5.591000   -0.479000
C      -1.206000   11.440000    0.297000
H      -1.396000   11.479000    1.393000
H      -2.129000   11.746000   -0.242000
N      -0.792000   -1.375000   -9.024000
C      -0.309000   -1.990000   -7.988000
H       0.765000   -2.074000   -7.861000
C      -1.192000   -2.491000   -6.918000
C      -2.834000   -3.320000   -4.779000
C      -1.434000   -3.381000   -4.670000
H      -0.968000   -3.715000   -3.751000
C      -3.404000   -2.862000   -5.978000
H      -4.481000   -2.814000   -6.086000
C      -2.592000   -2.447000   -7.038000
H      -3.060000   -2.081000   -7.943000
C       0.054000   -0.770000  -10.053000
H       1.129000   -1.035000   -9.907000
C      -0.622000   -2.975000   -5.731000
H       0.454000   -3.012000   -5.615000
C      -0.371000   -1.194000  -11.451000
H      -1.466000   -1.389000  -11.481000
H       0.169000   -2.113000  -11.769000
C      -0.038000   -0.009000  -12.360000
N      -9.025000    0.785000    1.359000
C      -7.990000    0.301000    1.975000
H      -7.863000   -0.773000    2.060000
C      -6.920000    1.184000    2.477000
C      -4.781000    2.825000    3.308000
C      -4.673000    1.426000    3.369000
H      -3.754000    0.960000    3.704000
C      -5.980000    3.396000    2.849000
H      -6.088000    4.473000    2.800000
C      -7.039000    2.584000    2.434000
H      -7.945000    3.052000    2.067000
C     -10.053000   -0.061000    0.753000
H      -9.909000   -1.135000    1.018000
C      -5.734000    0.614000    2.962000
H      -5.617000   -0.462000    3.000000
C     -11.451000    0.365000    1.174000
H     -11.481000    1.461000    1.368000
H     -11.771000   -0.175000    2.092000
C     -12.359000    0.032000   -0.013000
N       1.349000   -9.032000    0.799000
C       1.966000   -7.997000    0.314000
H       2.047000   -7.870000   -0.760000
C       2.473000   -6.929000    1.196000
C       3.317000   -4.794000    2.836000
C       3.371000   -4.684000    1.436000
H       3.705000   -3.766000    0.970000
C       2.859000   -5.993000    3.408000
H       2.816000   -6.103000    4.484000
C       2.437000   -7.051000    2.596000
H       2.070000   -7.956000    3.064000
C       0.739000  -10.058000   -0.046000
H       1.002000   -9.914000   -1.121000
C       2.958000   -5.744000    0.625000
H       2.990000   -5.625000   -0.451000
C       1.160000  -11.457000    0.378000
H       1.356000  -11.488000    1.474000
H       2.076000  -11.779000   -0.163000
C      -0.029000  -12.363000    0.048000
N       0.746000    1.340000   -9.023000
C       0.270000    1.949000   -7.980000
H      -0.803000    2.031000   -7.844000
C       1.161000    2.451000   -6.917000
C       2.818000    3.293000   -4.794000
C       1.419000    3.350000   -4.674000
H       0.960000    3.687000   -3.754000
C       3.381000    2.831000   -5.996000
H       4.456000    2.786000   -6.113000
C       2.561000    2.410000   -7.047000
H       3.022000    2.042000   -7.956000
C      -0.108000    0.740000  -10.048000
H      -1.181000    1.004000   -9.893000
C       0.600000    2.937000   -5.727000
H      -0.476000    2.973000   -5.602000
C       0.305000    1.171000  -11.447000
H       1.401000    1.363000  -11.486000
H      -0.235000    2.092000  -11.756000
N       3.665000    3.662000   -3.681000
N      -3.672000   -3.676000   -3.656000
N      -3.658000    3.664000    3.663000
N       3.679000   -3.673000    3.675000
H      13.001000    0.906000    0.262000
H      13.015000   -0.833000   -0.229000
H      -0.281000   12.997000   -0.922000
H       0.214000   13.011000    0.816000
H       0.917000    0.289000   13.001000
H      -0.822000   -0.202000   13.014000
H      -0.912000    0.239000  -13.001000
H       0.828000   -0.252000  -13.013000
H     -13.000000    0.906000   -0.262000
H     -13.014000   -0.833000    0.230000
H      -0.277000  -13.004000    0.923000
H       0.210000  -13.018000   -0.818000
