126
00000001
C      -4.720000    0.333000   -1.968000
C      -5.114000    1.469000   -1.025000
C      -4.321000    1.350000    0.261000
C      -4.482000   -0.030000    0.857000
C      -4.097000   -1.109000   -0.161000
C      -4.336000   -2.521000    0.349000
O      -4.824000    2.710000   -1.690000
O      -4.812000    2.343000    1.181000
O      -3.559000   -0.085000    1.962000
O      -4.908000   -0.923000   -1.339000
O      -5.674000   -2.712000    0.806000
C      -4.023000   -0.497000    3.236000
C      -3.710000    0.613000    4.232000
C      -2.223000    0.843000    4.281000
C      -1.552000   -0.464000    4.571000
C      -1.941000   -1.583000    3.631000
C      -1.395000   -2.935000    4.043000
O      -4.351000    1.837000    3.832000
O      -1.862000    1.762000    5.324000
O      -0.119000   -0.200000    4.367000
O      -3.380000   -1.691000    3.628000
O      -1.604000   -3.169000    5.440000
C       0.811000   -0.545000    5.381000
C       1.675000    0.679000    5.614000
C       2.368000    1.053000    4.323000
C       3.123000   -0.136000    3.746000
C       2.279000   -1.421000    3.714000
C       3.105000   -2.671000    3.452000
O       0.875000    1.774000    6.102000
O       3.319000    2.099000    4.527000
O       3.467000    0.236000    2.406000
O       1.629000   -1.623000    4.986000
O       4.296000   -2.729000    4.232000
C       4.780000   -0.046000    1.952000
C       5.261000    1.191000    1.213000
C       4.480000    1.397000   -0.080000
C       4.500000    0.128000   -0.907000
C       3.958000   -1.038000   -0.080000
C       4.045000   -2.363000   -0.804000
O       5.156000    2.338000    2.067000
O       5.098000    2.459000   -0.816000
O       3.625000    0.383000   -2.029000
O       4.797000   -1.178000    1.088000
O       3.407000   -3.371000    0.035000
C       4.104000    0.079000   -3.337000
C       3.870000    1.289000   -4.221000
C       2.385000    1.586000   -4.366000
C       1.598000    0.333000   -4.734000
C       1.974000   -0.888000   -3.889000
C       1.418000   -2.199000   -4.388000
O       4.555000    2.407000   -3.651000
O       2.249000    2.586000   -5.382000
O       0.218000    0.645000   -4.491000
O       3.415000   -1.041000   -3.875000
O       1.626000   -2.374000   -5.809000
C      -0.756000    0.373000   -5.463000
C      -1.750000    1.505000   -5.526000
C      -2.344000    1.705000   -4.118000
C      -3.009000    0.417000   -3.718000
C      -2.113000   -0.805000   -3.862000
C      -2.896000   -2.112000   -3.757000
O      -1.153000    2.690000   -6.037000
O      -3.310000    2.761000   -4.162000
O      -3.374000    0.530000   -2.338000
O      -1.473000   -0.815000   -5.175000
O      -4.145000   -2.086000   -4.444000
H      -5.372000    0.382000   -2.901000
H      -6.229000    1.408000   -0.796000
H      -3.218000    1.544000    0.046000
H      -5.551000   -0.187000    1.221000
H      -2.998000   -0.990000   -0.438000
H      -3.617000   -2.732000    1.209000
H      -4.140000   -3.267000   -0.490000
H      -5.602000    3.459000   -1.432000
H      -3.954000    2.850000    1.670000
H      -5.876000   -2.029000    1.657000
H      -5.149000   -0.667000    3.195000
H      -4.082000    0.311000    5.267000
H      -1.863000    1.244000    3.276000
H      -1.744000   -0.773000    5.651000
H      -1.579000   -1.336000    2.579000
H      -0.278000   -2.972000    3.820000
H      -1.923000   -3.754000    3.452000
H      -3.812000    2.699000    4.277000
H      -2.783000    2.185000    5.779000
H      -0.644000   -3.047000    5.983000
H       0.255000   -0.813000    6.339000
H       2.466000    0.426000    6.395000
H       1.588000    1.400000    3.568000
H       4.073000   -0.316000    4.350000
H       1.485000   -1.324000    2.902000
H       3.387000   -2.701000    2.347000
H       2.485000   -3.595000    3.699000
H       1.521000    2.486000    6.658000
H       2.852000    2.912000    5.121000
H       4.193000   -2.064000    5.115000
H       5.458000   -0.241000    2.848000
H       6.360000    1.043000    0.948000
H       3.403000    1.678000    0.165000
H       5.557000   -0.097000   -1.269000
H       2.881000   -0.831000    0.232000
H       5.138000   -2.639000   -0.974000
H       3.507000   -2.284000   -1.806000
H       4.892000    3.427000   -0.313000
H       3.053000   -2.899000    0.976000
H       5.220000   -0.148000   -3.290000
H       4.305000    1.079000   -5.253000
H       1.989000    1.999000   -3.380000
H       1.749000    0.096000   -5.839000
H       1.613000   -0.720000   -2.821000
H       0.300000   -2.237000   -4.168000
H       1.932000   -3.060000   -3.845000
H       3.824000    3.065000   -3.136000
H       2.128000    3.582000   -4.907000
H       2.708000   -2.285000   -6.038000
H      -0.248000    0.265000   -6.478000
H      -2.594000    1.199000   -6.229000
H      -1.516000    1.964000   -3.378000
H      -3.950000    0.270000   -4.344000
H      -1.310000   -0.781000   -3.053000
H      -3.089000   -2.336000   -2.656000
H      -2.281000   -2.962000   -4.202000
H      -1.651000    3.577000   -5.592000
H      -2.938000    3.628000   -3.578000
H      -4.836000   -1.386000   -3.929000
H       6.172000    2.689000    2.343000
