126

C	-0.2121	-4.4262	2.5741
C	-1.4338	-4.9083	1.7930
C	-1.4221	-4.2861	0.4112
C	-0.1039	-4.5536	-0.2791
C	1.0677	-4.0698	0.5822
C	2.4245	-4.4046	-0.0161
O	-2.6057	-4.5075	2.5228
O	-2.5005	-4.8649	-0.3475
O	-0.1379	-3.7783	-1.4931
O	0.9792	-4.7217	1.8656
O	2.5565	-5.7936	-0.3142
C	0.1510	-4.4083	-2.7291
C	-1.0407	-4.1964	-3.6548
C	-1.2556	-2.7223	-3.8720
C	0.0280	-2.1245	-4.3594
C	1.2227	-2.4190	-3.4802
C	2.5385	-1.9615	-4.0762
O	-2.2313	-4.7527	-3.0699
O	-2.2608	-2.4733	-4.8671
O	-0.1984	-0.6713	-4.3169
O	1.3125	-3.8484	-3.3037
O	2.6422	-2.3499	-5.4505
C	0.0648	0.1155	-5.4675
C	-1.1644	0.9724	-5.6994
C	-1.4110	1.8308	-4.4791
C	-0.1652	2.6236	-4.1102
C	1.1067	1.7598	-4.0848
C	2.3855	2.5821	-4.0415
O	-2.3091	0.1439	-5.9829
O	-2.4593	2.7734	-4.7091
O	-0.4098	3.1420	-2.7972
O	1.1843	0.9506	-5.2766
O	2.3875	3.6640	-4.9688
C	-0.0714	4.4945	-2.5407
C	-1.2301	5.0939	-1.7625
C	-1.3277	4.4866	-0.3675
C	0.0112	4.5800	0.3348
C	1.0905	3.9107	-0.5163
C	2.4767	4.0562	0.0707
O	-2.4511	4.9099	-2.4914
O	-2.3108	5.2174	0.3749
O	-0.1519	3.8592	1.5771
O	1.1345	4.5928	-1.7894
O	3.3964	3.2940	-0.7661
C	0.2755	4.4912	2.7815
C	-0.8522	4.3991	3.7916
C	-1.1534	2.9516	4.1500
C	0.1179	2.1873	4.5029
C	1.2618	2.4249	3.5123
C	2.6056	1.9048	3.9602
O	-2.0086	5.0336	3.2401
O	-2.0587	2.9682	5.2594
O	-0.2321	0.7956	4.4660
O	1.4309	3.8487	3.3017
O	2.9114	2.2853	5.3221
C	0.1147	-0.0549	5.5261
C	-1.0193	-1.0058	5.8149
C	-1.3536	-1.7669	4.5172
C	-0.1156	-2.5075	4.0927
C	1.1255	-1.6300	4.0130
C	2.4077	-2.4510	3.8933
O	-2.1454	-0.3211	6.3485
O	-2.4132	-2.6942	4.7769
O	-0.3579	-3.0401	2.7858
O	1.2626	-0.8306	5.2278
O	2.4285	-3.6028	4.7332
H	-0.1844	-4.9545	3.5831
H	-1.4078	-6.0443	1.7033
H	-1.5819	-3.1605	0.5004
H	0.0060	-5.6633	-0.5166
H	0.9881	-2.9421	0.7266
H	2.5656	-3.8045	-0.9758
H	3.2459	-4.1227	0.7219
H	-3.3847	-5.2936	2.4331
H	-3.0390	-4.0632	-0.8949
H	1.7966	-6.0845	-1.0688
H	0.3099	-5.5240	-2.5604
H	-0.8386	-4.7026	-4.6567
H	-1.5592	-2.2295	-2.8895
H	0.2353	-2.4579	-5.4293
H	1.0767	-1.9219	-2.4651
H	2.6095	-0.8266	-4.0013
H	3.4010	-2.4306	-3.4976
H	-3.1233	-4.2534	-3.5019
H	-2.7349	-3.4337	-5.1621
H	2.4834	-1.4630	-6.0982
H	0.2378	-0.5627	-6.3668
H	-0.9734	1.6528	-6.5939
H	-1.6979	1.1603	-3.6033
H	-0.0289	3.4857	-4.8437
H	1.0738	1.0766	-3.1730
H	2.5192	2.9998	-2.9884
H	3.2755	1.9141	-4.2884
H	-3.0604	0.7318	-6.5514
H	-3.3286	2.2550	-5.1647
H	1.6439	3.4668	-5.7692
H	0.0500	5.0497	-3.5294
H	-1.0449	6.2136	-1.6536
H	-1.6433	3.3944	-0.4477
H	0.2813	5.6684	0.5380
H	0.8426	2.8083	-0.6693
H	2.7806	5.1550	0.0752
H	2.4822	3.6503	1.1361
H	-3.3229	4.9730	-0.0103
H	2.8365	2.8360	-1.6090
H	0.5112	5.5867	2.5730
H	-0.5440	4.9551	4.7372
H	-1.6590	2.4449	3.2628
H	0.4560	2.4702	5.5544
H	0.9931	1.9368	2.5180
H	2.6095	0.7674	3.8817
H	3.4202	2.3258	3.2822
H	-2.7197	4.2597	2.8825
H	-3.0951	2.8124	4.8936
H	2.8571	3.3894	5.4185
H	0.3207	0.5738	6.4547
H	-0.6613	-1.7619	6.5897
H	-1.6683	-1.0325	3.7036
H	0.0758	-3.3657	4.8179
H	1.0383	-0.9346	3.1137
H	2.5285	-2.7860	2.8104
H	3.3022	-1.8055	4.1796
H	-3.0753	-0.8497	6.0507
H	-3.3249	-2.3779	4.2292
H	1.6761	-4.3361	4.3742
H	-2.8129	5.8913	-2.8623
