120

C	3.7313	-2.5494	-1.2987
H	4.4764	-2.2876	-1.8622
H	3.8902	-3.4612	-1.0109
C	2.4640	-2.5207	-2.1323
C	2.3828	-1.5820	-3.1665
H	3.0975	-1.0002	-3.2979
C	1.2840	-1.4830	-4.0056
C	0.1887	-2.3303	-3.7853
C	0.2745	-3.2653	-2.7676
H	-0.4497	-3.8318	-2.6251
C	1.3996	-3.3995	-1.9444
C	1.3944	-4.5242	-0.9142
H	0.9178	-5.2844	-1.2873
H	2.3093	-4.8006	-0.7538
C	0.7576	-4.1587	0.4121
C	-0.6257	-4.2981	0.5300
H	-1.1097	-4.6213	-0.1962
C	-1.2966	-3.9712	1.6859
C	-0.5779	-3.4656	2.7825
C	0.7884	-3.3508	2.6822
H	1.2689	-3.0379	3.4120
C	1.4786	-3.6933	1.5061
C	2.9889	-3.5419	1.5233
H	3.3749	-4.1426	0.8667
H	3.3232	-3.8008	2.3950
C	3.4413	-2.1153	1.2202
C	3.5391	-1.2166	2.2918
H	3.3670	-1.5223	3.1532
C	3.8827	0.1041	2.1134
C	4.1423	0.5817	0.8265
C	4.0539	-0.3011	-0.2382
H	4.2238	0.0140	-1.0961
C	3.7186	-1.6491	-0.0671
C	-4.0336	2.3275	1.0579
H	-4.8319	1.9552	1.4628
H	-4.1881	3.2765	0.9276
C	-3.8398	1.6822	-0.3005
C	-4.2151	0.3441	-0.4574
H	-4.6382	-0.0901	0.2465
C	-3.9758	-0.3498	-1.6229
C	-3.3210	0.2922	-2.6732
C	-3.0343	1.6422	-2.5651
H	-2.6570	2.0836	-3.2930
C	-3.2971	2.3566	-1.3962
C	-2.9307	3.8357	-1.3627
H	-3.1437	4.2434	-2.2158
H	-3.4482	4.2831	-0.6758
C	-1.4549	4.0015	-1.0765
C	-0.6074	3.8737	-2.1751
H	-0.9802	3.8247	-3.0264
C	0.7638	3.8158	-2.0446
C	1.3149	3.8389	-0.7606
C	0.4800	4.0373	0.3244
H	0.8556	4.1016	1.1717
C	-0.9145	4.1443	0.1976
C	-1.7632	4.4027	1.4340
H	-1.3468	5.1022	1.9609
H	-2.6363	4.7208	1.1553
C	-1.9425	3.1704	2.3073
C	-1.0917	3.0339	3.4045
H	-0.5041	3.7236	3.6137
C	-1.1050	1.8906	4.1957
C	-1.8740	0.8062	3.8020
C	-2.7640	0.9669	2.7547
H	-3.3094	0.2525	2.5205
C	-2.8743	2.1575	2.0349
C	-1.4471	-1.3080	-5.3273
H	-2.2282	-1.5906	-5.8276
H	-0.7700	-1.0334	-5.9648
C	-1.8154	-0.1330	-4.4732
H	-1.1093	0.0526	-3.8350
H	-1.9478	0.6539	-5.0249
C	-0.7129	-2.4411	4.9436
H	0.1571	-2.8251	5.1390
H	-1.2528	-2.5070	5.7464
C	-0.5413	-0.9987	4.5888
H	-0.0239	-0.5474	5.2737
H	-0.0697	-0.9164	3.7460
C	4.6930	2.4978	-0.5404
H	5.2442	1.9132	-1.0849
H	5.1659	3.3398	-0.4410
C	3.4067	2.7508	-1.2582
H	3.5823	3.0627	-2.1600
H	2.8900	1.9315	-1.3131
C	2.3008	0.2698	-5.2723
H	2.4188	0.8233	-4.4980
H	2.1206	0.8241	-6.0361
H	3.0995	-0.2389	-5.4285
C	-3.3088	-5.1414	1.1970
H	-2.6595	-5.7138	0.7771
H	-3.8875	-4.7693	0.5264
H	-3.8286	-5.6525	1.8206
C	2.9202	1.8148	3.4043
H	2.7528	2.3081	2.5981
H	3.1118	2.4273	4.1191
H	2.1455	1.2949	3.6282
C	-3.4258	-2.6243	-1.5479
H	-2.7148	-2.5007	-2.1809
H	-3.8024	-3.5012	-1.6556
H	-3.0796	-2.5317	-0.6560
C	1.0504	3.4618	-4.3886
H	0.5357	2.6542	-4.3244
H	1.7511	3.3428	-5.0327
H	0.4817	4.1845	-4.6636
C	0.1416	2.9558	5.9164
H	0.8722	3.2578	5.3707
H	0.4574	2.7826	6.8060
H	-0.5396	3.6336	5.9435
O	-0.9485	-2.4275	-4.5675
O	-3.0302	-0.4653	-3.7859
O	-1.3331	-3.1980	3.8997
O	-1.8561	-0.3985	4.4837
O	4.5341	1.9042	0.7523
O	2.6727	3.7529	-0.5189
O	1.2117	-0.6128	-5.0621
O	-2.6439	-4.0993	1.8793
O	4.0381	0.9446	3.2085
O	-4.4302	-1.6492	-1.7668
O	1.6195	3.7633	-3.1209
O	-0.4022	1.7590	5.3644
