99

O	0.0314	4.0485	-2.9876
O	0.0125	4.4843	-0.4304
O	1.7990	0.0850	4.7293
O	1.6862	-2.5401	4.0108
O	0.2555	-4.2801	-2.6462
O	0.1592	-2.5188	-4.6839
O	0.0334	4.0605	1.9266
O	-1.5786	-1.0324	-4.4272
O	-0.4787	-3.3473	3.7976
C	2.7231	1.9428	-0.5954
C	2.6414	1.6167	-1.9481
C	1.7513	2.3311	-2.7591
H	1.7239	2.1446	-3.6910
C	0.9113	3.2959	-2.2445
C	0.9358	3.5528	-0.8735
C	1.8476	2.9067	-0.0806
H	1.8880	3.1197	0.8446
C	3.7302	1.3378	0.3613
H	4.4703	0.9424	-0.1666
H	4.1141	2.0620	0.9154
C	0.2321	4.0641	-4.3973
H	0.0076	3.1861	-4.7674
H	-0.3429	4.7460	-4.7999
H	1.1695	4.2710	-4.5911
C	3.1295	-1.0878	0.9489
C	3.1683	0.2694	1.2820
C	2.7005	0.6720	2.5342
H	2.7316	1.5929	2.7653
C	2.1930	-0.2328	3.4510
C	2.1011	-1.5780	3.0876
C	2.5733	-1.9895	1.8602
H	2.5198	-2.9104	1.6279
C	3.7220	-1.6384	-0.3418
H	4.1104	-2.5290	-0.1559
H	4.4614	-1.0447	-0.6267
C	2.1512	1.3915	5.1878
H	1.7096	2.0641	4.6299
H	1.8638	1.5001	6.1190
H	3.1230	1.5077	5.1291
C	2.6263	-0.8326	-2.5200
C	2.7427	-1.7709	-1.4917
C	1.9441	-2.9289	-1.5079
H	2.0172	-3.5542	-0.7972
C	1.0590	-3.1746	-2.5354
C	0.9620	-2.2380	-3.5756
C	1.7171	-1.0947	-3.5516
H	1.6212	-0.4637	-4.2540
C	3.4110	0.4728	-2.5786
H	3.6090	0.6933	-3.5243
H	4.2728	0.3584	-2.1060
C	0.2901	-5.2290	-1.5756
H	0.0929	-4.7743	-0.7303
H	-0.3794	-5.9262	-1.7353
H	1.1791	-5.6354	-1.5271
C	-2.9410	1.9511	1.1886
C	-2.9699	1.1991	2.3680
C	-2.0482	1.5011	3.3664
H	-2.0903	1.0285	4.1894
C	-1.0771	2.4622	3.2009
H	-0.4436	2.6294	3.8884
C	-1.0366	3.1822	2.0210
C	-1.9782	2.9564	1.0412
H	-1.9733	3.4900	0.2554
C	-3.8747	1.7022	0.0191
H	-4.6770	1.2223	0.3451
H	-4.1728	2.5737	-0.3429
C	-3.3562	-0.4961	-1.2137
C	-3.2488	0.8952	-1.1057
C	-2.5360	1.5676	-2.1079
H	-2.4555	2.5130	-2.0558
C	-1.9476	0.9104	-3.1652
H	-1.4482	1.3931	-3.8120
C	-2.0886	-0.4581	-3.2757
C	-2.8036	-1.1512	-2.3120
H	-2.9183	-2.0899	-2.4016
C	-4.0555	-1.3657	-0.1746
H	-4.4521	-2.1531	-0.6241
H	-4.7911	-0.8486	0.2404
C	-3.0538	-1.2503	2.1808
C	-3.1031	-1.8377	0.9099
C	-2.2413	-2.9089	0.6429
H	-2.2698	-3.3210	-0.2125
C	-1.3484	-3.3848	1.5826
H	-0.7605	-4.0988	1.3677
C	-1.3231	-2.8083	2.8351
C	-2.1844	-1.7731	3.1373
H	-2.1854	-1.4085	4.0155
C	-3.8482	-0.0204	2.5611
H	-4.6556	0.0510	1.9918
H	-4.1364	-0.0833	3.5065
C	0.0981	5.0008	0.8793
H	-0.6366	5.6527	1.0031
H	0.9504	5.4975	0.9594
C	-1.2191	-2.3977	-4.4304
H	-1.7304	-2.8769	-5.1277
H	-1.4345	-2.8037	-3.5535
C	0.3597	-2.4458	4.4923
H	0.0264	-1.5221	4.3690
H	0.3413	-2.6544	5.4591
