138
00000001
C      -3.731000   -1.892000    4.921000
C      -4.953000   -1.731000    4.239000
H      -5.298000   -2.514000    3.578000
C      -5.631000   -0.498000    4.250000
C      -5.181000    0.514000    5.116000
H      -5.712000    1.457000    5.142000
C      -3.940000    0.404000    5.764000
C      -3.245000   -0.817000    5.688000
H      -2.242000   -0.871000    6.090000
C      -2.814000   -3.031000    4.596000
C      -1.828000   -3.450000    5.514000
H      -1.840000   -3.094000    6.536000
C      -0.755000   -4.247000    5.096000
H       0.048000   -4.462000    5.790000
C      -0.674000   -4.684000    3.766000
C      -1.724000   -4.390000    2.887000
H      -1.670000   -4.697000    1.849000
C      -2.774000   -3.562000    3.289000
H      -3.484000   -3.254000    2.535000
C       0.600000   -5.184000    3.207000
C       1.721000   -4.347000    3.241000
H       1.705000   -3.436000    3.826000
C       2.806000   -4.583000    2.396000
H       3.576000   -3.826000    2.364000
C       2.812000   -5.685000    1.511000
C       1.749000   -6.611000    1.608000
H       1.728000   -7.502000    0.996000
C       0.641000   -6.346000    2.424000
H      -0.213000   -7.011000    2.391000
C       3.772000   -5.712000    0.355000
C       4.961000   -4.955000    0.386000
H       5.356000   -4.574000    1.318000
C       5.576000   -4.547000   -0.802000
H       6.374000   -3.821000   -0.732000
C       5.052000   -4.936000   -2.050000
C       4.047000   -5.921000   -2.060000
H       3.670000   -6.318000   -2.994000
C       3.392000   -6.279000   -0.878000
H       2.512000   -6.899000   -0.969000
C       5.303000   -4.096000   -3.265000
C       6.462000   -3.302000   -3.389000
H       7.328000   -3.491000   -2.769000
C       6.462000   -2.166000   -4.213000
H       7.322000   -1.509000   -4.192000
C       5.304000   -1.804000   -4.929000
C       4.245000   -2.730000   -4.979000
H       3.332000   -2.512000   -5.514000
C       4.243000   -3.853000   -4.158000
H       3.328000   -4.428000   -4.119000
C      -6.479000   -0.135000    3.077000
C      -6.220000    1.076000    2.410000
H      -5.582000    1.830000    2.850000
C      -6.604000    1.257000    1.085000
H      -6.238000    2.142000    0.585000
C      -7.271000    0.236000    0.381000
C      -7.704000   -0.893000    1.109000
H      -8.268000   -1.680000    0.625000
C      -7.302000   -1.082000    2.440000
H      -7.549000   -2.012000    2.936000
C      -7.223000    0.233000   -1.117000
C      -7.052000    1.437000   -1.832000
H      -7.273000    2.391000   -1.371000
C      -6.428000    1.436000   -3.084000
H      -6.149000    2.389000   -3.513000
C      -6.018000    0.227000   -3.674000
C      -6.454000   -0.976000   -3.086000
H      -6.229000   -1.929000   -3.548000
C      -7.025000   -0.976000   -1.811000
H      -7.170000   -1.932000   -1.328000
C      -4.918000    0.216000   -4.687000
C      -4.713000    1.288000   -5.579000
H      -5.460000    2.063000   -5.691000
C      -3.502000    1.414000   -6.281000
H      -3.347000    2.281000   -6.911000
C      -2.479000    0.462000   -6.115000
C      -2.732000   -0.658000   -5.305000
H      -1.965000   -1.399000   -5.120000
C      -3.927000   -0.778000   -4.604000
H      -4.014000   -1.603000   -3.909000
C      -1.088000    0.699000   -6.597000
C      -0.498000    1.971000   -6.492000
H      -1.102000    2.845000   -6.284000
C       0.898000    2.109000   -6.499000
H       1.310000    3.097000   -6.352000
C       1.734000    0.971000   -6.553000
C       1.125000   -0.266000   -6.862000
H       1.691000   -1.180000   -6.947000
C      -0.262000   -0.392000   -6.907000
H      -0.687000   -1.377000   -7.056000
C      -3.195000    1.633000    6.171000
C      -2.194000    1.581000    7.160000
H      -2.124000    0.728000    7.824000
C      -1.187000    2.554000    7.202000
H      -0.362000    2.424000    7.891000
C      -1.170000    3.602000    6.262000
C      -2.278000    3.757000    5.413000
H      -2.302000    4.543000    4.670000
C      -3.274000    2.784000    5.363000
H      -4.016000    2.870000    4.582000
C       0.096000    4.305000    5.919000
C       1.279000    3.554000    5.806000
H       1.338000    2.548000    6.202000
C       2.326000    4.002000    5.000000
H       3.147000    3.322000    4.812000
C       2.214000    5.211000    4.290000
C       1.122000    6.053000    4.570000
H       1.024000    7.008000    4.068000
C       0.072000    5.604000    5.380000
H      -0.811000    6.223000    5.479000
C       3.040000    5.411000    3.067000
C       4.362000    4.937000    3.008000
H       4.888000    4.660000    3.913000
C       4.967000    4.679000    1.772000
H       5.942000    4.209000    1.754000
C       4.262000    4.901000    0.576000
C       3.015000    5.544000    0.636000
H       2.443000    5.724000   -0.265000
C       2.409000    5.796000    1.869000
H       1.389000    6.156000    1.870000
C       4.670000    4.221000   -0.680000
C       5.050000    2.870000   -0.629000
H       5.187000    2.370000    0.322000
C       5.118000    2.106000   -1.793000
H       5.302000    1.045000   -1.690000
C       4.826000    2.676000   -3.046000
C       4.547000    4.055000   -3.109000
H       4.332000    4.528000   -4.058000
C       4.462000    4.818000   -1.936000
H       4.174000    5.860000   -2.006000
C       5.021000   -0.376000   -5.285000
C       4.012000   -0.084000   -6.220000
H       3.795000   -0.821000   -6.980000
C       3.147000    1.013000   -6.028000
C       3.508000    1.972000   -5.055000
H       2.837000    2.784000   -4.819000
C       4.640000    1.798000   -4.238000
C       5.403000    0.628000   -4.380000
H       6.198000    0.435000   -3.674000
