244

O	-1.7545	-6.0027	-4.4594
H	-2.6760	-5.5935	-4.5218
C	-1.7080	-7.3866	-4.6692
C	-2.8588	-8.2084	-4.5286
C	-2.7838	-9.5639	-4.8814
H	-3.6605	-10.1944	-4.7891
C	-1.5821	-10.1277	-5.3200
C	-0.4366	-9.3298	-5.4054
H	0.4950	-9.7788	-5.7290
C	-0.4854	-7.9622	-5.0800
C	-1.5322	-11.5856	-5.6719
H	-1.7834	-12.1939	-4.7778
H	-0.5244	-11.8860	-6.0304
H	-2.2675	-11.8002	-6.4760
C	-4.1470	-7.7219	-3.9880
H	-5.0522	-8.2006	-4.3385
C	0.7399	-7.1313	-5.1592
H	0.6774	-6.0879	-4.8860
N	-4.1918	-6.8132	-3.0601
N	1.8736	-7.6522	-5.5263
O	-4.5340	-1.4885	5.8214
H	-5.2178	-1.1929	5.1378
C	-5.0779	-2.0733	6.9725
C	-4.3428	-1.9918	8.1761
C	-4.9158	-2.4618	9.3709
H	-4.3653	-2.3954	10.3014
C	-6.2057	-3.0039	9.3816
C	-6.9155	-3.1194	8.1832
H	-7.8998	-3.5746	8.1967
C	-6.3570	-2.6943	6.9679
C	-6.8272	-3.4805	10.6623
H	-6.1413	-3.3449	11.5257
H	-7.0759	-4.5587	10.5778
H	-7.7561	-2.9063	10.8599
C	-2.9869	-1.3941	8.1832
H	-2.5662	-1.0533	7.2493
C	-7.1223	-2.9835	5.7335
H	-8.1924	-3.1275	5.8189
N	-2.3208	-1.2711	9.2942
N	-6.5267	-3.1513	4.5904
O	6.3426	-3.2090	2.5239
H	6.2619	-2.3368	3.0263
C	6.5747	-4.3413	3.3167
C	7.1010	-5.5040	2.7015
C	7.4335	-6.6158	3.4898
H	7.8440	-7.5035	3.0227
C	7.2418	-6.5998	4.8737
C	6.6937	-5.4664	5.4794
H	6.5205	-5.4838	6.5493
C	6.3372	-4.3372	4.7198
C	7.5989	-7.7920	5.7128
H	7.9885	-8.6276	5.0926
H	6.6999	-8.1509	6.2565
H	8.3797	-7.5084	6.4497
C	7.3443	-5.6091	1.2419
H	7.8691	-6.4842	0.8813
C	5.6569	-3.2059	5.3985
H	5.0659	-2.5175	4.8152
N	6.8617	-4.7477	0.3957
N	5.7501	-3.0621	6.6873
O	4.2903	3.2060	-5.4647
H	4.2356	4.0694	-4.9434
C	4.6230	3.3537	-6.8177
C	4.4464	4.5851	-7.5083
C	4.9258	4.7132	-8.8203
H	4.8044	5.6536	-9.3464
C	5.5239	3.6318	-9.4753
C	5.6526	2.4100	-8.8120
H	6.1077	1.5773	-9.3357
C	5.2095	2.2572	-7.4860
C	6.0166	3.7660	-10.8866
H	5.4961	3.0315	-11.5354
H	7.1089	3.5689	-10.9188
H	5.8314	4.7846	-11.2908
C	3.7314	5.7475	-6.9366
H	4.0004	6.7340	-7.2906
C	5.3874	0.9597	-6.7891
H	4.9421	0.8204	-5.8141
N	2.7438	5.5853	-6.1082
N	6.1118	0.0226	-7.3230
O	1.7230	6.2062	4.3015
H	0.9527	6.2491	3.6489
C	2.4321	7.4021	4.4777
C	2.3389	8.4673	3.5406
C	2.9979	9.6808	3.8107
H	2.9366	10.5007	3.1050
C	3.7724	9.8365	4.9642
C	3.9003	8.7722	5.8573
H	4.5157	8.8988	6.7414
C	3.2416	7.5542	5.6324
C	4.4866	11.1287	5.2406
H	5.5799	10.9451	5.3010
H	4.1356	11.5490	6.2066
H	4.3003	11.8793	4.4441
C	1.6427	8.3043	2.2407
H	1.5147	7.3119	1.8409
C	3.4201	6.4809	6.6418
H	4.0796	6.6775	7.4762
N	1.2769	9.3475	1.5570
N	2.8380	5.3261	6.5230
O	-6.5840	3.7413	-2.2866
H	-6.3077	4.6410	-1.9180
C	-7.4017	3.7985	-3.4228
C	-8.2044	2.6783	-3.7301
C	-9.1117	2.7471	-4.8035
H	-9.7316	1.8927	-5.0471
C	-9.2257	3.9120	-5.5693
C	-8.4118	5.0108	-5.2803
H	-8.4808	5.8975	-5.9012
C	-7.4773	4.9609	-4.2371
C	-10.1891	3.9847	-6.7190
H	-10.7636	3.0414	-6.8323
H	-9.6311	4.1700	-7.6612
H	-10.9058	4.8157	-6.5530
C	-8.0971	1.4402	-2.9217
H	-7.3452	1.3816	-2.1472
C	-6.5542	6.1078	-4.0981
H	-6.9070	7.0812	-4.4070
N	-8.9152	0.4484	-3.1152
N	-5.3171	5.9222	-3.7497
C	-7.1440	-3.5639	0.9422
C	-6.5546	-3.1833	2.1497
H	-5.6353	-2.6111	2.1473
C	-7.1692	-3.5347	3.3643
C	-8.3622	-4.2978	3.3492
H	-8.8277	-4.6194	4.2697
C	-8.9491	-4.6884	2.1388
H	-9.8592	-5.2751	2.1375
C	-8.3436	-4.3198	0.9381
C	-8.8641	-4.6647	-0.4556
H	-9.8027	-5.2609	-0.4581
C	-8.9774	-3.3160	-1.1615
C	-10.1162	-2.8385	-1.8062
H	-11.0251	-3.4257	-1.8263
C	-10.0688	-1.5907	-2.4404
H	-10.9521	-1.2231	-2.9479
C	-8.8972	-0.8105	-2.4228
C	-7.7370	-1.3053	-1.7843
H	-6.8065	-0.7552	-1.7955
C	-7.7820	-2.5521	-1.1562
C	-6.6079	-3.2335	-0.4514
H	-5.6692	-2.6373	-0.4489
C	-6.4891	-4.5905	-1.1461
C	-5.3414	-5.0852	-1.7720
H	-4.4322	-4.4973	-1.7798
C	-5.3848	-6.3366	-2.4123
C	-6.5796	-7.0984	-2.3773
H	-6.6282	-8.0844	-2.8154
C	-7.7284	-6.6023	-1.7502
H	-8.6390	-7.1878	-1.7400
C	-7.6861	-5.3493	-1.1440
C	2.5671	1.8714	7.8772
C	2.5073	2.9613	7.0072
H	2.1441	2.8263	5.9955
C	2.9254	4.2277	7.4472
C	3.3776	4.3890	8.7808
H	3.6649	5.3575	9.1647
C	3.4350	3.2965	9.6564
H	3.7792	3.4299	10.6734
C	3.0335	2.0402	9.2055
C	3.0270	0.7615	10.0403
H	3.3912	0.8929	11.0818
C	1.5904	0.2509	9.9386
C	0.7659	-0.0597	11.0173
H	1.1168	0.0676	12.0332
C	-0.5226	-0.5509	10.7723
H	-1.1601	-0.7997	11.6118
C	-0.9972	-0.7318	9.4585
C	-0.1573	-0.4149	8.3651
H	-0.4667	-0.5602	7.3421
C	1.1262	0.0782	8.6098
C	2.1503	0.4422	7.5359
H	1.7869	0.3102	6.4941
C	3.3738	-0.4045	7.8843
C	3.9942	-1.3155	7.0265
H	3.5919	-1.4497	6.0334
C	5.0966	-2.0664	7.4938
C	5.5418	-1.8946	8.8186
H	6.3732	-2.4831	9.1875
C	4.9212	-0.9796	9.6797
H	5.2701	-0.8644	10.6980
C	3.8377	-0.2359	9.2129
C	4.6777	-5.2163	-4.9477
C	3.3844	-5.7399	-4.9626
H	2.6012	-5.1902	-4.4639
C	3.1516	-6.9961	-5.5693
C	4.2263	-7.6889	-6.1624
H	4.0549	-8.6566	-6.6173
C	5.5243	-7.1646	-6.1458
H	6.3435	-7.7208	-6.5836
C	5.7527	-5.9367	-5.5266
C	7.1212	-5.2878	-5.3303
H	7.9633	-5.8581	-5.7797
C	6.9523	-3.8765	-5.8841
C	7.7290	-3.3143	-6.8949
H	8.5428	-3.8719	-7.3390
C	7.4328	-2.0213	-7.3415
H	8.0297	-1.5886	-8.1347
C	6.3743	-1.2818	-6.7807
C	5.5839	-1.8570	-5.7594
H	4.7372	-1.3367	-5.3356
C	5.8780	-3.1493	-5.3131
C	5.0956	-3.9221	-4.2495
H	4.2511	-3.3552	-3.8007
C	6.1502	-4.3776	-3.2420
C	6.0585	-4.2327	-1.8552
H	5.2114	-3.7194	-1.4184
C	7.0327	-4.8225	-1.0312
C	8.1345	-5.4907	-1.6199
H	8.9217	-5.9092	-1.0086
C	8.2282	-5.6348	-3.0097
H	9.0540	-6.1810	-3.4467
C	7.2280	-5.0986	-3.8185
C	0.3166	7.2979	-3.8765
C	1.1653	6.3313	-4.4123
H	1.2436	5.3578	-3.9437
C	1.9137	6.6244	-5.5638
C	1.7832	7.8952	-6.1773
H	2.3147	8.1364	-7.0871
C	0.9264	8.8665	-5.6413
H	0.8250	9.8313	-6.1228
C	0.1903	8.5683	-4.4951
C	-0.8089	9.5029	-3.8131
H	-0.9097	10.4968	-4.3012
C	-0.3381	9.5611	-2.3621
C	-0.0068	10.7235	-1.6690
H	-0.1117	11.6923	-2.1385
C	0.4933	10.6202	-0.3652
H	0.7724	11.5243	0.1635
C	0.6730	9.3669	0.2514
C	0.3005	8.1907	-0.4429
H	0.4095	7.2090	-0.0082
C	-0.1998	8.2934	-1.7423
C	-0.5639	7.1132	-2.6433
H	-0.4609	6.1181	-2.1574
C	-1.9721	7.4241	-3.1463
C	-3.0490	6.5370	-3.1215
H	-2.9300	5.5539	-2.6835
C	-4.2714	6.9087	-3.7058
C	-4.3999	8.1891	-4.3009
H	-5.3134	8.4987	-4.7857
C	-3.3176	9.0796	-4.3272
H	-3.4157	10.0417	-4.8120
C	-2.1034	8.6932	-3.7624
