198

C	6.1165	-6.9155	0.7101
H	5.4131	-7.7102	1.0441
H	7.1269	-7.1854	1.0839
C	5.6866	-5.5686	1.3331
H	6.4741	-4.7997	1.1680
H	5.5542	-5.7004	2.4276
C	4.3648	-5.1379	0.6885
H	3.6007	-5.9395	0.8507
N	3.8379	-3.8501	1.1273
C	3.0390	-3.9839	2.3638
H	3.6232	-4.5356	3.1320
H	2.1130	-4.5741	2.1754
C	2.6974	-2.6399	2.9626
C	1.5620	-2.5243	3.7784
H	0.9277	-3.3896	3.9289
H	3.2394	-2.3295	-0.2157
C	3.7584	3.9324	-7.4944
H	4.8201	3.9090	-7.1651
H	3.6512	4.7667	-8.2195
C	2.8564	4.2033	-6.2686
H	1.8149	4.4157	-6.5982
H	3.2382	5.0947	-5.7279
C	2.8971	2.9725	-5.3566
H	3.9579	2.7708	-5.0619
N	2.0534	3.0387	-4.1692
C	2.7390	3.7251	-3.0538
H	3.1346	4.7041	-3.3992
H	3.6116	3.1299	-2.6996
C	1.7997	4.0185	-1.9074
C	2.3222	4.1613	-0.6141
H	3.3830	4.0158	-0.4536
H	0.6914	1.5116	-3.6334
C	-6.4885	-4.8248	-4.5141
H	-6.8444	-4.0137	-5.1863
H	-7.3257	-5.5438	-4.3838
C	-6.1218	-4.2166	-3.1410
H	-5.9427	-5.0260	-2.3985
H	-6.9703	-3.5972	-2.7804
C	-4.8690	-3.3515	-3.3142
H	-5.0723	-2.5633	-4.0825
N	-4.3523	-2.7384	-2.0961
C	-5.0331	-1.4614	-1.7992
H	-6.1341	-1.6083	-1.8153
H	-4.7976	-0.6967	-2.5751
C	-4.6861	-0.9416	-0.4237
C	-4.7823	0.4336	-0.1676
H	-5.0612	1.1028	-0.9718
H	-2.3262	-2.8802	-1.5028
C	6.1361	-6.8849	-0.8390
H	7.0051	-6.2775	-1.1740
H	6.2805	-7.9165	-1.2242
C	4.8432	-6.2912	-1.4439
H	3.9887	-6.9846	-1.2780
H	4.9796	-6.1652	-2.5389
C	4.5777	-4.9352	-0.7829
H	5.4631	-4.2693	-0.9473
N	3.3584	-4.2552	-1.2042
C	3.5731	-3.4660	-2.4356
H	4.0441	-4.1037	-3.2141
H	4.2717	-2.6175	-2.2451
C	2.2748	-2.9603	-3.0159
C	2.2864	-1.8112	-3.8204
H	3.2183	-1.2819	-3.9732
H	1.9310	-3.4932	0.1594
C	-4.2802	-3.3448	7.5000
H	-4.3859	-4.3983	7.1606
H	-5.0891	-3.1471	8.2348
C	-4.4537	-2.4042	6.2855
H	-4.5381	-1.3484	6.6271
H	-5.3897	-2.6713	5.7507
C	-3.2449	-2.5808	5.3604
H	-3.1735	-3.6552	5.0545
N	-3.2218	-1.7228	4.1816
C	-3.9950	-2.3105	3.0671
H	-5.0110	-2.5913	3.4200
H	-3.5113	-3.2443	2.6981
C	-4.1853	-1.3308	1.9341
C	-4.4024	-1.8190	0.6370
H	-4.3851	-2.8892	0.4646
H	-1.5490	-0.5456	3.6425
C	5.6006	5.8241	4.5244
H	4.8431	6.2658	5.2079
H	6.4125	6.5715	4.3944
C	4.9415	5.5460	3.1536
H	5.7160	5.2805	2.4018
H	4.4233	6.4652	2.8082
C	3.9356	4.4027	3.3241
H	3.1836	4.6906	4.1025
N	3.2543	3.9751	2.1078
C	2.0643	4.8054	1.8307
H	2.3404	5.8807	1.8563
H	1.2840	4.6523	2.6127
C	1.4942	4.5369	0.4575
C	0.1382	4.7996	0.2165
H	-0.4864	5.1481	1.0302
H	3.1512	1.9529	1.4938
C	-6.6372	6.4436	0.4263
H	-6.5872	6.6450	1.5194
H	-7.6638	6.6989	0.0860
C	-6.3788	4.9397	0.1791
H	-6.6071	4.6801	-0.8787
H	-7.0489	4.3439	0.8345
C	-4.9122	4.6406	0.5074
H	-4.7079	4.9337	1.5682
N	-4.4817	3.2665	0.2778
C	-4.7800	2.4023	1.4398
H	-5.8478	2.5148	1.7279
H	-4.1725	2.7033	2.3239
C	-4.5685	0.9402	1.1250
C	-4.2857	0.0501	2.1719
H	-4.1817	0.4339	3.1797
H	-2.7565	2.7692	-0.8405
C	3.4265	2.5946	-8.2025
H	2.4615	2.7058	-8.7450
H	4.2106	2.3751	-8.9579
C	3.3178	1.4057	-7.2205
H	4.3198	1.1574	-6.8063
H	2.9398	0.5164	-7.7680
C	2.3466	1.7914	-6.0997
H	1.3560	2.0568	-6.5498
N	2.1664	0.7938	-5.0508
C	1.1390	-0.2031	-5.4195
H	1.3627	-0.6196	-6.4250
H	0.1324	0.2705	-5.4811
C	1.1161	-1.3704	-4.4620
C	-0.0651	-2.1129	-4.3168
H	-0.9518	-1.8078	-4.8592
H	2.3408	1.2422	-2.9903
C	6.1826	4.5467	5.1827
H	7.0990	4.2448	4.6302
H	6.4821	4.7773	6.2269
C	5.1852	3.3656	5.1874
H	4.3461	3.5757	5.8866
H	5.7085	2.4509	5.5370
C	4.6650	3.1660	3.7599
H	5.5326	2.9811	3.0773
N	3.6671	2.1158	3.5931
C	4.2968	0.7910	3.4093
H	5.0342	0.6090	4.2203
H	4.8574	0.7509	2.4464
C	3.2876	-0.3289	3.4811
C	3.5630	-1.5413	2.8315
H	4.4742	-1.6362	2.2544
H	1.8233	2.4219	2.6012
C	-5.6159	7.3572	-0.2972
H	-5.8323	7.3424	-1.3877
H	-5.7462	8.4029	0.0557
C	-4.1516	6.9206	-0.0683
H	-3.8569	7.1054	0.9889
H	-3.4867	7.5223	-0.7236
C	-4.0298	5.4326	-0.4137
H	-4.3556	5.2763	-1.4731
N	-2.7143	4.8399	-0.2025
C	-1.8318	5.0487	-1.3696
H	-1.8194	6.1241	-1.6457
H	-2.2105	4.4908	-2.2570
C	-0.4028	4.6603	-1.0733
C	0.4383	4.2856	-2.1315
H	0.0352	4.2381	-3.1353
H	-2.4132	3.0563	0.8927
C	-2.9060	-3.1811	8.1971
H	-2.8969	-2.2154	8.7497
H	-2.7742	-3.9938	8.9436
C	-1.7222	-3.2040	7.2045
H	-1.5988	-4.2245	6.7779
H	-0.7892	-2.9398	7.7462
C	-1.9993	-2.1826	6.0961
H	-2.1413	-1.1724	6.5581
N	-0.9979	-2.1101	5.0386
C	0.1171	-1.2119	5.4063
H	0.5135	-1.4939	6.4052
H	-0.2333	-0.1570	5.4822
C	1.2699	-1.3174	4.4369
C	2.1458	-0.2309	4.2948
H	1.9539	0.6794	4.8500
H	-1.4830	-2.2085	2.9813
C	-5.2960	-5.5463	-5.1911
H	-5.0991	-6.4985	-4.6504
H	-5.5695	-5.8061	-6.2357
C	-4.0051	-4.6957	-5.1990
H	-4.1210	-3.8307	-5.8894
H	-3.1618	-5.3197	-5.5638
C	-3.7319	-4.2179	-3.7689
H	-3.6442	-5.1091	-3.0963
N	-2.5690	-3.3529	-3.6046
C	-1.3269	-4.1373	-3.4398
H	-1.2411	-4.8825	-4.2594
H	-1.3435	-4.7079	-2.4830
C	-0.0956	-3.2667	-3.5147
C	1.0820	-3.6915	-2.8819
H	1.0737	-4.6136	-2.3144
H	-2.6464	-1.4961	-2.5929
C	3.0244	-3.4060	-0.0328
C	1.7735	1.6107	-3.8740
C	-2.9083	-2.5596	-2.3955
C	-1.7734	-1.6108	3.8741
C	2.9084	2.5594	2.3955
C	-3.0235	3.4065	0.0312
