132

N	1.4045	-4.9709	-2.2960
O	1.5945	-4.5958	1.7010
C	2.3414	-3.6848	1.0030
C	2.2884	-3.7698	-0.4010
C	3.0583	-2.8837	-1.1330
H	3.0333	-2.9417	-2.0810
C	3.8682	-1.9126	-0.5520
C	3.8912	-1.8206	0.8390
C	3.1413	-2.7197	1.6050
H	3.1793	-2.6707	2.5520
C	1.6795	-4.5338	3.1170
H	1.1035	-5.2239	3.5090
H	2.6065	-4.6837	3.3950
H	1.3854	-3.6509	3.4240
C	1.4255	-4.7789	-1.0360
H	0.8625	-5.3079	-0.4850
C	0.4746	-5.9890	-2.7740
H	0.9817	-6.7359	-3.1840
H	-0.0444	-6.3500	-2.0110
C	4.6821	-1.0075	-1.4690
H	5.4721	-0.6735	-0.9720
H	5.0122	-1.5395	-2.2360
N	1.4036	4.4741	-3.1570
O	1.5939	0.8252	-4.8310
C	2.3409	0.9742	-3.6930
C	2.2878	2.2322	-3.0650
C	3.0578	2.4233	-1.9310
H	3.0327	3.2733	-1.5070
C	3.8679	1.4354	-1.3810
C	3.8910	0.1844	-1.9970
C	3.1410	-0.0287	-3.1580
H	3.1791	-0.8737	-3.5890
C	1.6790	-0.4318	-5.4850
H	1.1030	-0.4269	-6.2790
H	2.6061	-0.5977	-5.7540
H	1.3851	-1.1399	-4.8740
C	1.4247	3.2871	-3.6210
H	0.8617	3.0741	-4.3550
C	0.4735	5.3970	-3.8000
H	0.9804	6.1251	-4.2410
H	-0.0455	4.9170	-4.4930
C	4.6818	1.7765	-0.1380
H	5.4719	1.1795	-0.0970
H	5.0117	2.7065	-0.2160
N	1.4040	0.4971	5.4530
O	1.5936	3.7712	3.1300
C	2.3407	2.7112	2.6900
C	2.2878	1.5382	3.4660
C	3.0580	0.4613	3.0640
H	3.0330	-0.3307	3.5880
C	3.8680	0.4784	1.9330
C	3.8908	1.6384	1.1570
C	3.1407	2.7503	1.5540
H	3.1786	3.5453	1.0370
C	1.6785	4.9662	2.3680
H	1.1024	5.6511	2.7700
H	2.6055	5.2823	2.3590
H	1.3845	4.7901	1.4500
C	1.4249	1.4921	4.6570
H	0.8618	2.2351	4.8390
C	0.4739	0.5920	6.5740
H	0.9809	0.6111	7.4250
H	-0.0451	1.4330	6.5050
C	4.6821	-0.7675	1.6070
H	5.4721	-0.5045	1.0700
H	5.0121	-1.1655	2.4510
N	-1.4036	-4.4741	-3.1570
O	-1.5939	-0.8252	-4.8310
C	-2.3409	-0.9742	-3.6930
C	-2.2878	-2.2322	-3.0650
C	-3.0578	-2.4233	-1.9310
H	-3.0327	-3.2733	-1.5070
C	-3.8679	-1.4354	-1.3810
C	-3.8910	-0.1844	-1.9970
C	-3.1410	0.0287	-3.1580
H	-3.1791	0.8737	-3.5890
C	-1.6790	0.4318	-5.4850
H	-1.1030	0.4269	-6.2790
H	-2.6061	0.5977	-5.7540
H	-1.3851	1.1399	-4.8740
C	-1.4247	-3.2871	-3.6210
H	-0.8617	-3.0741	-4.3550
C	-0.4735	-5.3970	-3.8000
H	-0.9804	-6.1251	-4.2410
H	0.0455	-4.9170	-4.4930
C	-4.6818	-1.7765	-0.1380
H	-5.4719	-1.1795	-0.0970
H	-5.0117	-2.7065	-0.2160
N	-1.4040	-0.4971	5.4530
O	-1.5936	-3.7712	3.1300
C	-2.3407	-2.7112	2.6900
C	-2.2878	-1.5382	3.4660
C	-3.0580	-0.4613	3.0640
H	-3.0330	0.3307	3.5880
C	-3.8680	-0.4784	1.9330
C	-3.8908	-1.6384	1.1570
C	-3.1407	-2.7503	1.5540
H	-3.1786	-3.5453	1.0370
C	-1.6785	-4.9662	2.3680
H	-1.1024	-5.6511	2.7700
H	-2.6055	-5.2823	2.3590
H	-1.3845	-4.7901	1.4500
C	-1.4249	-1.4921	4.6570
H	-0.8618	-2.2351	4.8390
C	-0.4739	-0.5920	6.5740
H	-0.9809	-0.6111	7.4250
H	0.0451	-1.4330	6.5050
C	-4.6821	0.7675	1.6070
H	-5.4721	0.5045	1.0700
H	-5.0121	1.1655	2.4510
N	-1.4045	4.9709	-2.2960
O	-1.5945	4.5958	1.7010
C	-2.3414	3.6848	1.0030
C	-2.2884	3.7698	-0.4010
C	-3.0583	2.8837	-1.1330
H	-3.0333	2.9417	-2.0810
C	-3.8682	1.9126	-0.5520
C	-3.8912	1.8206	0.8390
C	-3.1413	2.7197	1.6050
H	-3.1793	2.6707	2.5520
C	-1.6795	4.5338	3.1170
H	-1.1035	5.2239	3.5090
H	-2.6065	4.6837	3.3950
H	-1.3854	3.6509	3.4240
C	-1.4255	4.7789	-1.0360
H	-0.8625	5.3079	-0.4850
C	-0.4746	5.9890	-2.7740
H	-0.9817	6.7359	-3.1840
H	0.0444	6.3500	-2.0110
C	-4.6821	1.0075	-1.4690
H	-5.4721	0.6735	-0.9720
H	-5.0122	1.5395	-2.2360
