204

C	-2.3168	-3.6680	7.2931
C	-3.5914	-3.2798	6.5745
C	-4.1703	-2.0110	6.7689
C	-5.3126	-1.6264	6.0366
C	-5.9211	-2.5475	5.1601
C	-5.3435	-3.8196	4.9547
C	-4.2035	-4.1941	5.6923
C	-3.6694	-5.6151	5.5974
N	-2.5329	-5.7334	4.6858
C	-5.9407	-4.7701	3.9373
C	-7.2460	-2.2020	4.5026
N	-7.2741	-1.5671	3.1850
C	-5.8706	-0.2276	6.1938
C	-3.6171	-1.0811	7.8368
N	-2.6734	-0.0976	7.3102
C	-2.3056	3.5964	-7.3605
C	-3.5735	3.1857	-6.6434
C	-4.1349	1.9096	-6.8421
C	-5.2731	1.5090	-6.1123
C	-5.8929	2.4193	-5.2336
C	-5.3331	3.6979	-5.0226
C	-4.1988	4.0895	-5.7590
C	-3.6916	5.5202	-5.6619
N	-2.5816	5.6636	-4.7232
C	-5.9476	4.6390	-4.0074
C	-7.2178	2.0635	-4.5835
N	-7.2506	1.4428	-3.2605
C	-5.8163	0.1054	-6.2770
C	-3.5631	0.9849	-7.9047
N	-2.6034	0.0244	-7.3644
C	5.8853	4.0517	4.7796
C	5.2625	5.0435	3.8182
C	4.1074	5.7619	4.1829
C	3.4811	6.6262	3.2608
C	4.0567	6.8192	1.9907
C	5.2118	6.1029	1.6148
C	5.8367	5.2482	2.5450
C	7.1808	4.6221	2.2121
N	7.2473	3.3032	1.5828
C	5.7666	6.2534	0.2145
C	3.4836	7.8695	1.0525
N	2.5358	7.3208	0.0860
C	2.1974	7.3314	3.6458
C	3.5726	5.6696	5.6031
N	2.4598	4.7312	5.7268
C	6.0341	-3.9065	-4.6751
C	5.4167	-4.9152	-3.7285
C	4.2880	-5.6604	-4.1212
C	3.6708	-6.5522	-3.2191
C	4.2274	-6.7397	-1.9393
C	5.3518	-5.9915	-1.5335
C	5.9710	-5.1135	-2.4451
C	7.2922	-4.4558	-2.0858
N	7.3192	-3.1252	-1.4796
C	5.8812	-6.1385	-0.1227
C	3.6690	-7.8098	-1.0157
N	2.7055	-7.2860	-0.0503
C	2.4142	-7.2888	-3.6328
C	3.7715	-5.5614	-5.5480
N	2.6417	-4.6425	-5.6785
C	-7.3908	0.2251	-0.6688
C	-7.3954	-0.3640	0.5841
C	-6.1842	-0.6680	1.2424
C	-6.1802	-1.2957	2.5737
C	-4.9728	-0.3629	0.5998
C	-4.9684	0.2338	-0.6629
C	-6.1751	0.5350	-1.3157
C	-6.1602	1.1613	-2.6475
C	0.3185	2.7834	6.1435
C	-0.6706	1.8627	6.4522
C	-0.5058	0.9672	7.5312
C	-1.5424	-0.0015	7.9056
C	0.6829	1.0156	8.2784
C	1.6779	1.9395	7.9668
C	1.5078	2.8390	6.9012
C	2.5588	3.8242	6.6266
C	0.6664	-6.4419	1.8793
C	-0.3388	-6.1413	2.7854
C	-1.5227	-6.9095	2.8230
C	-2.5979	-6.6425	3.7850
C	-1.6696	-7.9755	1.9205
C	-0.6589	-8.2786	1.0114
C	0.5238	-7.5216	0.9817
C	1.5788	-7.8910	0.0320
C	-1.8273	7.9155	-1.9340
C	-0.8387	8.2348	-1.0063
C	0.3596	7.5044	-0.9616
C	1.3951	7.8980	-0.0012
C	0.5421	6.4325	-1.8613
C	-0.4414	6.1155	-2.7848
C	-1.6410	6.8578	-2.8386
C	-2.6886	6.5704	-3.8244
C	-0.5569	-1.8676	-6.4605
C	0.4546	-2.7569	-6.1329
C	1.6531	-2.7860	-6.8784
C	2.7245	-3.7450	-6.5897
C	1.8125	-1.8882	-7.9464
C	0.7952	-0.9959	-8.2766
C	-0.4040	-0.9779	-7.5459
C	-1.4626	-0.0449	-7.9444
C	7.4210	0.7190	0.3305
C	7.4325	-0.5312	-0.2644
C	6.2240	-1.1903	-0.5777
C	6.2229	-2.5225	-1.2000
C	5.0089	-0.5549	-0.2775
C	4.9971	0.7053	0.3223
C	6.1999	1.3579	0.6371
C	6.1687	2.6813	1.2774
H	-1.7183	-4.3538	6.6820
H	-1.6891	-2.7938	7.4976
H	-2.5191	-4.1621	8.2582
H	-3.3117	-5.9195	6.5944
H	-4.4843	-6.3149	5.3348
H	-6.6258	-5.4996	4.3993
H	-6.5030	-4.2335	3.1647
H	-5.1581	-5.3385	3.4201
H	-7.8653	-3.1093	4.4152
H	-7.8307	-1.5472	5.1683
H	-5.0626	0.4968	6.3532
H	-6.4195	0.0917	5.3003
H	-6.5621	-0.1522	7.0499
H	-4.4555	-0.5146	8.2726
H	-3.1801	-1.6701	8.6650
H	-2.5158	4.0954	-8.3213
H	-1.7152	4.2853	-6.7449
H	-1.6661	2.7328	-7.5728
H	-4.5261	6.2059	-5.4235
H	-3.3152	5.8257	-6.6513
H	-6.6438	5.3563	-4.4724
H	-5.1759	5.2211	-3.4896
H	-6.5029	4.0945	-3.2352
H	-7.7901	1.3950	-5.2466
H	-7.8483	2.9645	-4.5116
H	-4.9998	-0.6111	-6.4291
H	-6.3708	-0.2208	-5.3895
H	-6.4981	0.0246	-7.1402
H	-4.3889	0.4004	-8.3403
H	-3.1329	1.5770	-8.7342
H	5.1172	3.5264	5.3599
H	6.4605	3.2836	4.2503
H	6.5647	4.5383	5.4985
H	7.7962	4.5568	3.1235
H	7.7518	5.2994	1.5566
H	4.9552	6.3842	-0.5121
H	6.3366	5.3689	-0.0926
H	6.4375	7.1244	0.1267
H	3.0441	8.7004	1.6362
H	4.3112	8.3069	0.4716
H	1.5660	7.5229	2.7714
H	1.6071	6.7174	4.3360
H	2.3893	8.3017	4.1336
H	4.3924	5.4329	6.3066
H	3.1905	6.6602	5.8977
H	6.7253	-4.3786	-5.3924
H	5.2633	-3.3872	-5.2576
H	6.5945	-3.1348	-4.1356
H	7.8590	-5.1105	-1.4044
H	7.9298	-4.3951	-2.9825
H	5.0583	-6.2947	0.5856
H	6.5720	-6.9931	-0.0270
H	6.4221	-5.2421	0.2019
H	3.2487	-8.6442	-1.6080
H	4.5017	-8.2359	-0.4335
H	1.8137	-6.6804	-4.3193
H	2.6409	-8.2437	-4.1358
H	1.7782	-7.5154	-2.7702
H	3.4113	-6.5552	-5.8591
H	4.5959	-5.3025	-6.2380
H	-8.3224	0.4621	-1.1831
H	-8.3307	-0.6055	1.0895
H	-5.1873	-1.5177	3.0086
H	-4.0281	-0.5937	1.0972
H	-4.0202	0.4684	-1.1517
H	-5.1643	1.3722	-3.0809
H	0.1986	3.4824	5.3153
H	-1.5939	1.8131	5.8742
H	-1.2892	-0.6518	8.7691
H	0.8216	0.3239	9.1123
H	2.5967	1.9727	8.5564
H	3.4571	3.7507	7.2746
H	1.5857	-5.8566	1.8440
H	-0.2362	-5.3120	3.4859
H	-3.4865	-7.3018	3.6945
H	-2.5840	-8.5727	1.9396
H	-0.7798	-9.1139	0.3181
H	1.3437	-8.7602	-0.6174
H	-2.7539	8.4928	-1.9662
H	-0.9886	9.0640	-0.3114
H	1.1350	8.7617	0.6461
H	1.4745	5.8694	-1.8147
H	-0.3094	5.2930	-3.4884
H	-3.5928	7.2107	-3.7553
H	-1.4879	-1.8390	-5.8938
H	0.3450	-3.4532	-5.3010
H	3.6228	-3.6603	-7.2363
H	2.7386	-1.9006	-8.5254
H	0.9236	-0.3069	-9.1143
H	-1.2159	0.6057	-8.8095
H	8.3489	1.2351	0.5778
H	8.3701	-1.0342	-0.5020
H	5.2315	-2.9678	-1.4072
H	4.0677	-1.0553	-0.5160
H	4.0465	1.1910	0.5538
H	5.1658	3.1036	1.4777
