276

C	10.1325	7.1879	1.0873
C	10.0668	6.6231	2.4915
C	9.4202	7.3433	3.5196
C	9.2885	6.7788	4.8048
C	9.8741	5.5261	5.0817
C	10.5186	4.8003	4.0621
C	10.6406	5.3692	2.7768
C	11.4374	4.6372	1.7099
N	10.6300	3.6537	0.9892
C	11.0661	3.4128	4.3174
C	9.8474	4.9877	6.5039
N	8.6149	4.2594	6.7926
C	8.5108	7.4969	5.8865
C	8.9117	8.7496	3.2579
N	7.5428	8.9480	2.7752
C	0.0925	-7.8742	-9.7935
C	1.5385	-7.4330	-9.8619
C	2.5414	-8.1229	-9.1539
C	3.8734	-7.6577	-9.1704
C	4.2115	-6.5369	-9.9556
C	3.2092	-5.8309	-10.6558
C	1.8838	-6.3054	-10.6369
C	0.8284	-5.6385	-11.5050
N	0.0028	-4.6872	-10.7628
C	3.5569	-4.5641	-11.4098
C	5.6645	-6.1203	-10.1040
N	6.2310	-5.1200	-9.1969
C	4.9220	-8.3583	-8.3339
C	2.2071	-9.4111	-8.4174
N	1.9263	-9.1894	-6.9994
C	-6.7296	9.5724	-5.0347
C	-7.6716	8.9443	-4.0300
C	-7.7175	9.4066	-2.6991
C	-8.5326	8.7529	-1.7490
C	-9.3498	7.6804	-2.1553
C	-9.3136	7.2151	-3.4863
C	-8.5020	7.8761	-4.4280
C	-8.5501	7.4801	-5.8951
N	-7.4826	6.5466	-6.2473
C	-10.1327	6.0023	-3.8723
C	-10.3153	7.0443	-1.1686
N	-9.7569	5.8466	-0.5441
C	-8.5174	9.1914	-0.2995
C	-6.9255	10.6399	-2.3044
N	-5.5550	10.4922	-1.8109
C	-6.5232	-7.8850	7.4659
C	-5.3736	-7.5142	8.3787
C	-4.1715	-8.2509	8.3255
C	-3.0643	-7.8667	9.1067
C	-3.1846	-6.7747	9.9918
C	-4.3788	-6.0312	10.0498
C	-5.4881	-6.4315	9.2730
C	-6.8280	-5.7425	9.4655
N	-7.1739	-4.5628	8.6707
C	-4.4738	-4.8043	10.9329
C	-2.0368	-6.4421	10.9327
N	-1.0151	-5.6155	10.2949
C	-1.7433	-8.5992	9.0037
C	-4.1013	-9.5016	7.4638
N	-3.7650	-9.2027	6.0730
C	7.3453	-3.1305	-7.4424
C	7.8354	-2.2010	-6.5396
C	7.0551	-1.7894	-5.4304
C	7.5776	-0.8445	-4.5145
C	8.0730	-0.0306	-3.7494
C	8.6839	0.9075	-2.8829
C	9.5734	1.8771	-3.3972
C	10.1971	2.7795	-2.5437
C	9.9710	2.7408	-1.1561
C	10.6859	3.6831	-0.2913
C	9.0752	1.7824	-0.6422
C	8.4379	0.8864	-1.4875
C	5.7642	-2.3392	-5.2699
C	5.2768	-3.2644	-6.1882
C	6.0572	-3.6792	-7.2814
C	5.5251	-4.6720	-8.2244
C	-2.8559	10.2324	-0.8566
C	-1.5671	10.0402	-0.3873
C	-1.0360	8.7330	-0.2475
C	0.2801	8.5515	0.2382
C	1.4199	8.4298	0.6631
C	2.7432	8.3065	1.1482
C	3.2971	7.0405	1.4437
C	4.6022	6.9368	1.9138
C	5.3993	8.0802	2.1040
C	6.7787	7.9341	2.5919
C	4.8467	9.3434	1.8120
C	3.5466	9.4580	1.3448
C	-1.8483	7.6320	-0.6011
C	-3.1405	7.8367	-1.0748
C	-3.6666	9.1341	-1.2083
C	-5.0375	9.3235	-1.7015
C	1.0354	-3.8635	9.1834
C	2.0241	-2.9950	8.7450
C	2.3519	-1.8379	9.4924
C	3.3924	-0.9715	9.0659
C	4.3082	-0.2407	8.7207
C	5.3976	0.5898	8.3461
C	6.7249	0.1517	8.5432
C	7.7935	0.9676	8.1881
C	7.5780	2.2385	7.6268
C	8.7284	3.0782	7.2764
C	6.2544	2.6743	7.4242
C	5.1822	1.8680	7.7774
C	1.6416	-1.5762	10.6835
C	0.6556	-2.4556	11.1180
C	0.3407	-3.6114	10.3820
C	-0.6858	-4.5281	10.8888
C	-1.0018	-1.1920	-11.2496
C	-1.8063	-0.1850	-10.7263
C	-2.5755	-0.4212	-9.5666
C	-3.4309	0.5847	-9.0467
C	-4.1873	1.4439	-8.6211
C	-5.0856	2.4358	-8.1491
C	-4.6107	3.5827	-7.4683
C	-5.4920	4.5603	-7.0303
C	-6.8759	4.4303	-7.2557
C	-7.8296	5.4573	-6.8268
C	-7.3496	3.2862	-7.9217
C	-6.4741	2.3003	-8.3629
C	-2.4925	-1.6898	-8.9431
C	-1.6831	-2.6855	-9.4692
C	-0.9300	-2.4554	-10.6369
C	-0.0983	-3.5023	-11.2409
C	-0.8066	-10.1184	-4.7350
C	-1.2153	-10.0711	-3.4062
C	-0.4082	-9.4395	-2.4353
C	-0.7994	-9.4238	-1.0699
C	-1.1308	-9.4423	0.1059
C	-1.5206	-9.5000	1.4702
C	-0.8503	-10.3574	2.3696
C	-1.2621	-10.4425	3.6954
C	-2.3448	-9.6805	4.1688
C	-2.7742	-9.8355	5.5626
C	-2.9999	-8.8078	3.2785
C	-2.5987	-8.7194	1.9533
C	0.8070	-8.8417	-2.8501
C	1.2046	-8.8916	-4.1784
C	0.4089	-9.5409	-5.1422
C	0.8194	-9.6505	-6.5462
C	-5.8898	-2.6491	5.8239
C	-6.1860	-1.5542	5.0173
C	-7.3269	-0.7645	5.2788
C	-7.6554	0.3512	4.4717
C	-7.9850	1.3143	3.7954
C	-8.4032	2.4294	3.0296
C	-9.1050	3.4916	3.6424
C	-9.5392	4.5748	2.8868
C	-9.3047	4.6319	1.5012
C	-9.8084	5.7753	0.7350
C	-8.5980	3.5778	0.8889
C	-8.1495	2.4997	1.6373
C	-8.1537	-1.1113	6.3764
C	-7.8545	-2.2074	7.1688
C	-6.7180	-2.9980	6.9053
C	-6.3930	-4.1689	7.7332
H	10.0355	6.3946	0.3362
H	11.0846	7.7088	0.8948
H	9.3219	7.9006	0.8983
H	12.2563	4.0846	2.1977
H	11.9198	5.3586	1.0242
H	10.5294	2.9084	5.1277
H	10.9593	2.7834	3.4258
H	12.1342	3.4324	4.5911
H	9.8911	5.8377	7.2030
H	10.7481	4.3770	6.7018
H	7.7658	8.1813	5.4649
H	9.1681	8.0899	6.5444
H	7.9696	6.7796	6.5157
H	9.5674	9.2576	2.5328
H	9.0054	9.3591	4.1707
H	-0.1644	-8.5755	-10.6048
H	-0.5806	-7.0120	-9.8677
H	-0.1334	-8.3731	-8.8453
H	1.2984	-5.1745	-12.3918
H	0.1497	-6.4169	-11.8897
H	3.7280	-4.7511	-12.4825
H	2.7517	-3.8237	-11.3313
H	4.4600	-4.0899	-11.0095
H	5.8424	-5.7445	-11.1240
H	6.3186	-7.0039	-10.0299
H	5.3458	-9.2348	-8.8522
H	5.7552	-7.6915	-8.0837
H	4.4927	-8.7079	-7.3868
H	3.0779	-10.0833	-8.4700
H	1.3781	-9.9383	-8.9257
H	-6.3377	8.8152	-5.7247
H	-5.8676	10.0408	-4.5463
H	-7.2287	10.3492	-5.6381
H	-9.5498	7.0855	-6.1559
H	-8.4054	8.3836	-6.5084
H	-11.1683	6.2699	-4.1406
H	-10.1751	5.2850	-3.0439
H	-9.6981	5.4753	-4.7280
H	-10.6469	7.7868	-0.4188
H	-11.2210	6.7323	-1.7126
H	-7.5822	9.6994	-0.0387
H	-9.3453	9.8806	-0.0660
H	-8.6070	8.3322	0.3761
H	-6.8704	11.3374	-3.1552
H	-7.4694	11.2074	-1.5326
H	-7.1858	-7.0318	7.2804
H	-7.1408	-8.6959	7.8872
H	-6.1501	-8.2232	6.4913
H	-6.9435	-5.4445	10.5195
H	-7.6444	-6.4653	9.3058
H	-3.5296	-4.2465	10.9380
H	-4.7097	-5.0607	11.9787
H	-5.2465	-4.1115	10.5808
H	-1.5478	-7.3821	11.2345
H	-2.4220	-5.9818	11.8613
H	-1.6031	-9.0436	8.0127
H	-1.6640	-9.4122	9.7445
H	-0.9047	-7.9119	9.1664
H	-5.0936	-9.9799	7.4568
H	-3.4059	-10.2371	7.9093
H	7.9440	-3.4560	-8.2931
H	8.8316	-1.7773	-6.6682
H	9.7651	1.9054	-4.4696
H	10.8841	3.5231	-2.9537
H	11.3115	4.4299	-0.8235
H	8.8977	1.7603	0.4332
H	7.7473	0.1451	-1.0851
H	5.1550	-2.0280	-4.4215
H	4.2757	-3.6806	-6.0572
H	4.4879	-5.0094	-8.0423
H	-3.2699	11.2351	-0.9639
H	-0.9438	10.8930	-0.1174
H	2.6896	6.1473	1.2977
H	5.0196	5.9522	2.1369
H	7.1149	6.8985	2.7865
H	5.4678	10.2270	1.9612
H	3.1258	10.4384	1.1199
H	-1.4505	6.6227	-0.4968
H	-3.7601	6.9784	-1.3438
H	-5.5904	8.4037	-1.9686
H	0.7809	-4.7566	8.6123
H	2.5646	-3.1961	7.8200
H	6.9003	-0.8310	8.9807
H	8.8160	0.6181	8.3483
H	9.7231	2.6233	7.4657
H	6.0928	3.6590	6.9849
H	4.1592	2.2112	7.6211
H	1.8839	-0.6855	11.2626
H	0.1198	-2.2492	12.0471
H	-1.1622	-4.2247	11.8442
H	-0.4199	-1.0014	-12.1543
H	-1.8600	0.7893	-11.2115
H	-3.5395	3.6886	-7.2955
H	-5.1309	5.4463	-6.5076
H	-8.8943	5.2352	-7.0480
H	-8.4220	3.1739	-8.0972
H	-6.8487	1.4187	-8.8828
H	-3.0802	-1.8745	-8.0437
H	-1.6192	-3.6642	-8.9932
H	0.4331	-3.2069	-12.1695
H	-1.4354	-10.6196	-5.4743
H	-2.1548	-10.5304	-3.0995
H	-0.0157	-10.9587	2.0096
H	-0.7442	-11.1193	4.3787
H	-2.1901	-10.5688	6.1568
H	-3.8346	-8.2137	3.6514
H	-3.1145	-8.0495	1.2651
H	1.4307	-8.3442	-2.1070
H	2.1426	-8.4369	-4.4982
H	0.1048	-10.1869	-7.2046
H	-5.0033	-3.2512	5.6134
H	-5.5402	-1.2951	4.1786
H	-9.3009	3.4499	4.7136
H	-10.0809	5.3894	3.3725
H	-10.2618	6.5878	1.3404
H	-8.4131	3.6296	-0.1843
H	-7.6032	1.6863	1.1593
H	-9.0341	-0.5031	6.5848
H	-8.4924	-2.4824	8.0088
H	-5.4454	-4.6874	7.4948
