132

C	-4.6772	0.2657	-2.9463
C	-4.7516	0.1514	-1.4378
C	-4.7837	-1.1183	-0.8252
C	-4.7658	-1.2294	0.5808
C	-4.7850	-0.0631	1.3740
C	-4.7539	1.2097	0.7665
C	-4.7742	1.3141	-0.6400
C	-4.8423	2.6800	-1.2959
N	-3.5938	3.3737	-1.6230
C	-4.6850	2.4568	1.6229
C	-4.8735	-0.1784	2.8842
N	-3.6405	-0.2628	3.6715
C	-4.7131	-2.5961	1.2322
C	-4.8667	-2.3655	-1.6834
N	-3.6289	-3.0089	-2.1309
C	4.7125	0.2302	-2.8648
C	4.7666	0.0878	-1.3577
C	4.7800	-1.1930	-0.7681
C	4.7471	-1.3293	0.6348
C	4.7748	-0.1786	1.4501
C	4.7598	1.1053	0.8668
C	4.7902	1.2349	-0.5376
C	4.8816	2.6113	-1.1680
N	3.6496	3.3247	-1.5149
C	4.6973	2.3390	1.7433
C	4.8479	-0.3228	2.9582
N	3.6041	-0.3788	3.7318
C	4.6674	-2.7045	1.2643
C	4.8561	-2.4257	-1.6465
N	3.6136	-3.0469	-2.1107
C	0.0777	9.3106	-4.3203
C	-0.8809	8.3661	-4.6997
C	-0.8881	7.0988	-4.1164
C	0.0650	6.7485	-3.1430
C	1.0257	7.7067	-2.7732
C	1.0315	8.9752	-3.3552
C	0.0532	5.4022	-2.5220
C	-1.1609	4.7613	-2.2333
C	-1.1892	3.4867	-1.6485
C	-2.4699	2.8260	-1.3448
C	0.0218	2.8472	-1.3420
C	1.2486	3.4707	-1.6169
C	2.5107	2.7861	-1.2855
C	1.2518	4.7431	-2.2094
C	-0.0652	-0.9415	10.2452
C	0.9002	-1.6026	9.4805
C	0.9080	-1.4713	8.0914
C	-0.0509	-0.6777	7.4363
C	-1.0179	-0.0199	8.2177
C	-1.0242	-0.1496	9.6072
C	-0.0402	-0.5377	5.9596
C	-1.2400	-0.4586	5.2357
C	-1.2393	-0.3185	3.8392
C	-2.5023	-0.2324	3.0854
C	-0.0140	-0.2683	3.1571
C	1.1984	-0.3518	3.8591
C	2.4766	-0.2989	3.1290
C	1.1726	-0.4811	5.2558
C	-0.0188	-8.3620	-5.9702
C	0.9478	-7.3679	-6.1496
C	0.9503	-6.2344	-5.3351
C	-0.0152	-6.0688	-4.3247
C	-0.9844	-7.0751	-4.1595
C	-0.9853	-8.2098	-4.9721
C	-0.0121	-4.8655	-3.4557
C	1.1956	-4.2916	-3.0290
C	1.2111	-3.1515	-2.2106
C	2.4827	-2.5560	-1.7646
C	-0.0061	-2.5808	-1.8093
C	-1.2265	-3.1390	-2.2188
C	-2.4943	-2.5228	-1.7901
C	-1.2170	-4.2761	-3.0413
H	-5.6787	0.3100	-3.4049
H	-4.1361	1.1679	-3.2555
H	-4.1517	-0.5878	-3.3902
H	-5.4230	3.3743	-0.6684
H	-5.4167	2.6225	-2.2339
H	-4.1616	3.2717	1.1092
H	-4.1448	2.2726	2.5592
H	-5.6884	2.8271	1.8897
H	-5.4722	-1.0607	3.1602
H	-5.4420	0.6700	3.2962
H	-4.2026	-2.5626	2.2017
H	-4.1687	-3.3171	0.6108
H	-5.7212	-3.0073	1.4054
H	-5.4461	-3.1454	-1.1648
H	-5.4503	-2.1599	-2.5945
H	5.7203	0.2607	-3.3108
H	4.1947	1.1486	-3.1650
H	4.1747	-0.6046	-3.3294
H	5.4534	3.2896	-0.5155
H	5.4779	2.5645	-2.0929
H	4.1608	3.1573	1.2483
H	4.1738	2.1397	2.6856
H	5.7026	2.7126	1.9983
H	5.4158	-1.2277	3.2258
H	5.4391	0.5007	3.3891
H	4.1402	-3.4148	0.6166
H	4.1251	-2.6803	2.2170
H	5.6672	-3.1227	1.4659
H	5.4241	-3.2206	-1.1381
H	5.4470	-2.2109	-2.5506
H	0.0820	10.3019	-4.7755
H	-1.6225	8.6151	-5.4603
H	-1.6267	6.3614	-4.4342
H	1.7601	7.4611	-2.0046
H	1.7795	9.7074	-3.0475
H	-2.1133	5.2510	-2.4364
H	-2.3992	1.8316	-0.8638
H	0.0098	1.8541	-0.8834
H	2.4116	1.7838	-0.8262
H	2.2157	5.1976	-2.4390
H	-0.0697	-1.0421	11.3313
H	1.6467	-2.2317	9.9677
H	1.6515	-2.0105	7.5025
H	-1.7569	0.6188	7.7316
H	-1.7767	0.3779	10.1952
H	-2.2032	-0.5251	5.7419
H	-2.4047	-0.1396	1.9866
H	-0.0037	-0.1640	2.0683
H	2.4002	-0.1890	2.0301
H	2.1261	-0.5146	5.7830
H	-0.0195	-9.2490	-6.6050
H	1.7009	-7.4725	-6.9321
H	1.6964	-5.4549	-5.4971
H	-1.7295	-6.9769	-3.3686
H	-1.7398	-8.9828	-4.8186
H	2.1527	-4.7335	-3.3067
H	2.3979	-1.6622	-1.1170
H	-0.0037	-1.6932	-1.1700
H	-2.4031	-1.6192	-1.1571
H	-2.1764	-4.6764	-3.3697
