123

C	-4.5192	-3.0282	0.9096
C	-4.6610	-1.5827	0.4798
C	-4.7213	-0.5602	1.4490
C	-4.7680	0.7927	1.0521
C	-4.8229	1.1170	-0.3194
C	-4.7629	0.0985	-1.2932
C	-4.7227	-1.2526	-0.8899
C	-4.7802	-2.3529	-1.9319
N	-3.5301	-2.8712	-2.4932
C	-4.7296	0.4540	-2.7647
C	-4.9763	2.5642	-0.7486
N	-3.7762	3.3688	-0.9923
C	-4.7465	1.8913	2.0939
C	-4.7705	-0.9172	2.9221
N	-3.5190	-1.0237	3.6772
C	4.7916	-2.5923	0.8399
C	4.8041	-1.1495	0.3793
C	4.8057	-0.8453	-0.9986
C	4.7275	0.4953	-1.4298
C	4.7189	1.5361	-0.4774
C	4.7245	1.2389	0.9010
C	4.8045	-0.1040	1.3261
C	4.9301	-0.4197	2.8049
N	3.7177	-0.6357	3.5982
C	4.6332	2.3564	1.9189
C	4.7327	2.9799	-0.9406
N	3.4591	3.6681	-1.1655
C	4.6452	0.8168	-2.9080
C	4.9249	-1.9622	-2.0178
N	3.7070	-2.5817	-2.5470
C	-1.2104	9.2576	-2.3801
S	0.2562	9.3565	-3.2739
C	0.6438	7.7206	-2.9397
C	-0.3234	7.1013	-2.1647
C	-1.3915	8.0036	-1.8515
C	-0.2594	5.6949	-1.7262
C	-1.4334	4.9603	-1.4934
C	-1.3825	3.6207	-1.0767
C	-2.6153	2.8505	-0.8399
C	-0.1344	3.0052	-0.8974
C	1.0521	3.7181	-1.1304
C	2.3554	3.0606	-0.9347
C	0.9773	5.0586	-1.5351
C	0.9940	-1.5625	9.5131
S	-0.4436	-2.4964	9.6540
C	-0.7832	-2.3409	7.9815
C	0.1784	-1.5959	7.3181
C	1.2020	-1.1544	8.2191
C	0.1479	-1.2954	5.8738
C	-1.0727	-1.2052	5.1846
C	-1.1148	-0.9296	3.8100
C	-2.3972	-0.8329	3.0899
C	0.0886	-0.7279	3.1166
C	1.3204	-0.8049	3.7840
C	2.5693	-0.5877	3.0332
C	1.3388	-1.0925	5.1578
C	1.0490	-7.2366	-6.3184
S	-0.4570	-6.9516	-7.0997
C	-0.8220	-5.6414	-6.0569
C	0.1816	-5.4159	-5.1287
C	1.2598	-6.3455	-5.2959
C	0.1423	-4.3549	-4.1056
C	1.3304	-3.7836	-3.6246
C	1.3092	-2.7700	-2.6545
C	2.5589	-2.1757	-2.1511
C	0.0758	-2.3146	-2.1657
C	-1.1254	-2.8716	-2.6312
C	-2.4107	-2.3893	-2.0996
C	-1.0797	-3.8910	-3.5929
H	-3.9855	-3.6226	0.1586
H	-3.9540	-3.1159	1.8452
H	-5.4992	-3.5065	1.0719
H	-5.3211	-3.2250	-1.5320
H	-5.3906	-2.0296	-2.7898
H	-4.2445	1.4224	-2.9346
H	-4.1699	-0.2885	-3.3460
H	-5.7425	0.5137	-3.1960
H	-5.5765	2.6241	-1.6702
H	-5.5708	3.1190	-0.0059
H	-4.2017	1.5842	2.9943
H	-4.2537	2.7952	1.7164
H	-5.7639	2.1786	2.4070
H	-5.3943	-0.1908	3.4663
H	-5.2937	-1.8762	3.0621
H	4.2653	-3.2379	0.1266
H	5.8111	-2.9949	0.9575
H	4.2830	-2.7031	1.8049
H	5.4923	0.3781	3.3147
H	5.5515	-1.3179	2.9479
H	4.1333	2.0258	2.8371
H	5.6286	2.7345	2.2040
H	4.0585	3.2069	1.5333
H	5.2938	3.6028	-0.2261
H	5.3011	3.0716	-1.8791
H	4.0567	1.7241	-3.0899
H	5.6431	0.9790	-3.3476
H	4.1659	0.0085	-3.4723
H	5.5333	-2.7843	-1.6092
H	5.4970	-1.6163	-2.8931
H	-1.8512	10.1291	-2.2822
H	1.5461	7.2816	-3.3557
H	-2.2472	7.7363	-1.2337
H	-2.4148	5.4083	-1.6483
H	-2.4742	1.7992	-0.5236
H	-0.0858	1.9613	-0.5749
H	2.3199	2.0137	-0.5773
H	1.9120	5.6010	-1.6774
H	1.5996	-1.3549	10.3904
H	-1.6549	-2.8311	7.5576
H	2.0452	-0.5343	7.9193
H	-2.0201	-1.3247	5.7103
H	-2.3281	-0.5865	2.0129
H	0.0658	-0.5053	2.0460
H	2.4511	-0.3797	1.9525
H	2.3083	-1.1703	5.6496
H	1.6888	-8.0511	-6.6453
H	-1.7406	-5.0783	-6.1941
H	2.1439	-6.3673	-4.6609
H	2.3001	-4.1014	-4.0073
H	2.4427	-1.3615	-1.4104
H	0.0502	-1.5228	-1.4117
H	-2.3476	-1.5856	-1.3412
H	-2.0236	-4.3294	-3.9171
