120

C	-0.7533	-2.8283	4.8663
N	-0.9434	-3.5703	3.6197
C	-0.3615	-1.3615	4.8131
C	1.0032	-1.0002	4.7910
C	1.3659	0.3639	4.8137
C	0.3698	1.3643	4.7989
C	-0.9939	0.9971	4.8163
C	-1.3620	-0.3657	4.7986
C	-2.8291	-0.7607	4.7812
C	-3.4330	-0.9239	6.1875
C	-2.0679	2.0705	4.8716
N	-2.6101	2.6143	3.6248
C	0.7636	2.8311	4.7815
C	0.9217	3.4372	6.1873
C	2.8339	0.7552	4.8665
N	3.5735	0.9570	3.6193
C	2.0753	-2.0755	4.7633
C	2.5190	-2.5302	6.1655
C	-0.7565	-2.8267	-4.8717
N	-0.9497	-3.5674	-3.6242
C	-0.3648	-1.3597	-4.8209
C	0.9994	-0.9968	-4.8070
C	1.3599	0.3680	-4.8230
C	0.3637	1.3675	-4.7990
C	-0.9992	0.9988	-4.8167
C	-1.3662	-0.3644	-4.7986
C	-2.8324	-0.7611	-4.7656
C	-3.4534	-0.9318	-6.1637
C	-2.0736	2.0718	-4.8631
N	-2.6077	2.6131	-3.6126
C	0.7567	2.8343	-4.7671
C	0.9242	3.4540	-6.1657
C	2.8251	0.7637	-4.8710
N	3.5552	0.9669	-3.6200
C	2.0742	-2.0701	-4.7880
C	2.5244	-2.5145	-6.1914
C	-1.5159	-5.7458	-0.0031
C	-1.3390	-5.0769	1.2079
C	-0.9888	-3.7146	1.2205
C	-0.7995	-2.9883	2.4884
C	-0.8194	-3.0464	-0.0023
C	-0.9931	-3.7132	-1.2253
C	-0.8031	-2.9869	-2.4928
C	-1.3462	-5.0750	-1.2139
C	-4.2099	4.1904	0.0027
C	-3.7150	3.7055	-1.2075
C	-2.7193	2.7119	-1.2174
C	-2.1864	2.1827	-2.4833
C	-2.2362	2.2213	0.0051
C	-2.7274	2.7063	1.2267
C	-2.1976	2.1772	2.4942
C	-3.7227	3.6997	1.2138
C	5.7325	1.5445	-0.0070
C	5.0581	1.3705	-1.2152
C	3.6988	1.0091	-1.2239
C	2.9726	0.8145	-2.4902
C	3.0376	0.8292	0.0005
C	3.7094	1.0019	1.2208
C	2.9901	0.8038	2.4899
C	5.0689	1.3624	1.2056
H	-0.0123	-3.3999	5.4449
H	-1.6856	-2.9556	5.4366
H	-2.9528	-1.6976	4.2200
H	-3.4069	-0.0125	4.2205
H	-4.4920	-1.2123	6.1295
H	-2.9027	-1.6949	6.7640
H	-3.3660	0.0094	6.7638
H	-1.7123	2.9378	5.4475
H	-2.9363	1.7126	5.4448
H	1.7016	2.9560	4.2228
H	0.0154	3.4070	4.2189
H	1.6956	2.9128	6.7654
H	1.2024	4.4981	6.1287
H	-0.0116	3.3644	6.7632
H	3.4068	0.0100	5.4386
H	2.9605	1.6831	5.4441
H	2.9490	-1.7121	4.2044
H	1.7125	-2.9442	4.1961
H	2.9260	-1.6914	6.7476
H	1.6759	-2.9382	6.7403
H	3.2940	-3.3066	6.1012
H	-1.6886	-2.9537	-5.4425
H	-0.0155	-3.3999	-5.4486
H	-2.9492	-1.6952	-4.1984
H	-3.4049	-0.0104	-4.2027
H	-4.5115	-1.2196	-6.0919
H	-3.3937	-0.0006	-6.7446
H	-2.9297	-1.7044	-6.7439
H	-1.7211	2.9399	-5.4401
H	-2.9456	1.7151	-5.4316
H	1.6915	2.9539	-4.2018
H	0.0056	3.4057	-4.2039
H	1.2084	4.5133	-6.0948
H	-0.0065	3.3910	-6.7469
H	1.6991	2.9335	-6.7459
H	3.4046	0.0209	-5.4393
H	2.9520	1.6925	-5.4471
H	2.9458	-1.7092	-4.2238
H	1.7132	-2.9440	-4.2279
H	2.9323	-1.6722	-6.7676
H	1.6846	-2.9223	-6.7715
H	3.3008	-3.2897	-6.1274
H	-1.7899	-6.8021	-0.0028
H	-1.4676	-5.5870	2.1626
H	-0.5273	-1.9188	2.4010
H	-0.5463	-1.9869	-0.0022
H	-0.5270	-1.9184	-2.4048
H	-1.4812	-5.5832	-2.1687
H	-4.9829	4.9605	0.0023
H	-4.0838	4.0782	-2.1630
H	-1.4107	1.3975	-2.3974
H	-1.4625	1.4476	0.0061
H	-1.4264	1.3877	2.4088
H	-4.0973	4.0693	2.1684
H	6.7872	1.8244	-0.0110
H	5.5625	1.5071	-2.1718
H	1.9068	0.5278	-2.4036
H	1.9803	0.5474	0.0049
H	1.9239	0.5180	2.4066
H	5.5805	1.4929	2.1592
