120

C	2.8647	-0.1788	-5.9496
N	2.9928	-0.4720	-4.5268
C	1.3602	-0.0335	-6.1705
C	0.7535	1.2373	-6.1071
C	-0.6567	1.3332	-6.1054
C	-1.4559	0.1707	-6.1304
C	-0.8348	-1.0965	-6.2056
C	0.5724	-1.2037	-6.2077
C	1.2346	-2.5695	-6.2093
C	1.5415	-3.0733	-7.6299
C	-1.6430	-2.3710	-6.0505
N	-1.7038	-2.8930	-4.6670
C	-2.9677	0.2744	-6.0421
C	-3.6357	0.4342	-7.4164
C	-1.2911	2.6937	-5.8272
N	-1.1142	2.8989	-4.3951
C	1.6009	2.4913	-6.0163
C	1.9966	3.0328	-7.3992
C	2.9407	-0.0319	5.9602
N	3.3634	0.1546	4.5538
C	1.4398	-0.0612	6.1716
C	0.7273	-1.2795	6.1169
C	-0.6851	-1.2586	6.1296
C	-1.3833	-0.0347	6.1761
C	-0.6616	1.1782	6.2352
C	0.7478	1.1715	6.2128
C	1.5189	2.4800	6.1839
C	1.8591	3.0025	7.5896
C	-1.4267	2.4773	6.0752
N	-1.7778	2.8090	4.6768
C	-2.8997	-0.0136	6.1163
C	-3.5474	-0.0811	7.5100
C	-1.4783	-2.5321	5.8480
N	-1.7702	-2.4806	4.4206
C	1.4717	-2.5988	6.0173
C	1.7187	-3.2466	7.3887
C	4.2293	0.8116	-1.3084
C	3.5090	0.1782	-2.3120
C	3.6219	0.3325	-3.7484
S	2.2368	-0.8578	-1.6969
C	2.6604	-0.4426	-0.0711
C	2.1426	-0.7615	1.2022
C	2.8662	-0.1464	2.2160
C	2.5778	-0.2702	3.6271
S	4.1820	0.8405	1.6091
C	3.7581	0.4424	-0.0268
C	-1.6722	-1.4923	-1.2653
C	-1.5997	-2.4073	-2.3065
C	-1.5833	-2.0459	-3.7066
S	-1.4706	-4.0631	-1.7480
C	-1.5013	-3.5347	-0.0939
C	-1.4052	-4.1630	1.1718
C	-1.5104	-3.2394	2.2030
C	-1.4201	-3.4353	3.6361
S	-1.7148	-1.5924	1.6326
C	-1.6400	-2.1337	-0.0099
C	-2.8174	3.3448	-1.1644
C	-1.9342	3.0143	-2.1832
C	-2.1234	3.0686	-3.6192
S	-0.4188	2.3565	-1.5917
C	-0.9677	2.5141	0.0429
C	-0.4267	2.1951	1.3063
C	-1.2924	2.5492	2.3329
C	-1.0416	2.3263	3.7386
S	-2.7840	3.2609	1.7519
C	-2.2587	3.0786	0.1083
H	3.2582	-1.0275	-6.5264
H	3.4280	0.7151	-6.2660
H	2.1532	-2.5335	-5.6115
H	0.5967	-3.2962	-5.6904
H	2.0258	-4.0597	-7.6025
H	2.2085	-2.3813	-8.1648
H	0.6231	-3.1613	-8.2283
H	-2.6786	-2.2481	-6.4026
H	-1.2313	-3.1760	-6.6730
H	-3.2514	1.1158	-5.3959
H	-3.3768	-0.6119	-5.5388
H	-3.4016	-0.4205	-8.0670
H	-4.7288	0.5051	-7.3236
H	-3.2751	1.3383	-7.9278
H	-2.3440	2.7448	-6.1516
H	-0.7533	3.4851	-6.3698
H	1.0723	3.2594	-5.4407
H	2.5077	2.2890	-5.4318
H	1.1067	3.2755	-7.9982
H	2.6058	3.9436	-7.3103
H	2.5730	2.2884	-7.9674
H	3.4055	0.7769	6.5381
H	3.4232	-0.9503	6.3291
H	2.4404	2.3602	5.5989
H	0.9423	3.2430	5.6432
H	2.4183	3.9471	7.5362
H	2.4681	2.2757	8.1459
H	0.9462	3.1769	8.1770
H	-2.3680	2.4567	6.6397
H	-0.8717	3.3336	6.4875
H	-3.2565	-0.8407	5.4910
H	-3.2396	0.8908	5.5956
H	-3.2556	-0.9980	8.0429
H	-3.2352	0.7674	8.1360
H	-4.6439	-0.0648	7.4361
H	-2.4263	-2.5209	6.4051
H	-0.9407	-3.4458	6.1529
H	0.9165	-3.2969	5.3759
H	2.4323	-2.4552	5.5052
H	0.7709	-3.4410	7.9109
H	2.2572	-4.1996	7.2878
H	2.3133	-2.5833	8.0328
H	5.0464	1.5026	-1.5077
H	4.2183	1.1923	-4.1116
H	1.2778	-1.3950	1.3943
H	1.6059	-0.7531	3.8355
H	-1.7283	-0.4170	-1.4271
H	-1.4316	-0.9647	-3.8736
H	-1.2694	-5.2299	1.3394
H	-1.0039	-4.3989	3.9905
H	-3.8090	3.7558	-1.3459
H	-3.1600	3.2079	-3.9849
H	0.5394	1.7241	1.4815
H	-0.1660	1.6816	3.9311
