120

C	0.0819	2.9097	-6.0254
N	0.1731	3.3450	-4.6119
C	0.0276	1.4074	-6.2319
C	-1.2094	0.7303	-6.2164
C	-1.2361	-0.6859	-6.2272
C	-0.0313	-1.4186	-6.2262
C	1.2075	-0.7326	-6.2371
C	1.2409	0.6770	-6.2306
C	2.5692	1.4115	-6.1954
C	3.1033	1.7239	-7.6029
C	2.4815	-1.5278	-6.0227
N	2.8046	-1.8133	-4.6062
C	-0.0534	-2.9366	-6.1849
C	-0.0110	-3.5630	-7.5885
C	-2.5637	-1.3909	-6.0147
N	-2.9767	-1.5320	-4.5992
C	-2.5095	1.5139	-6.1614
C	-3.0664	1.8231	-7.5603
C	2.4864	-1.5276	6.0169
N	2.7954	-1.8284	4.5995
C	1.2156	-0.7276	6.2338
C	-0.0240	-1.4125	6.2298
C	-1.2279	-0.6793	6.2353
C	-1.2000	0.7368	6.2202
C	0.0373	1.4126	6.2289
C	1.2506	0.6818	6.2242
C	2.5781	1.4181	6.1771
C	3.1151	1.7555	7.5780
C	0.0909	2.9140	6.0161
N	0.1724	3.3419	4.6006
C	-2.5009	1.5195	6.1665
C	-3.0629	1.8164	7.5660
C	-2.5561	-1.3844	6.0304
N	-2.9726	-1.5338	4.6171
C	-0.0473	-2.9303	6.1885
C	-0.0043	-3.5565	7.5920
C	-0.7891	1.9776	1.3156
C	-0.2524	2.8081	2.2813
C	-0.2810	2.5426	3.7016
S	0.5635	4.2079	1.5886
C	0.1925	3.6490	-0.0015
S	0.5669	4.2115	-1.5899
C	-0.2479	2.8137	-2.2881
C	-0.2774	2.5484	-3.7088
C	-0.7862	1.9819	-1.3241
C	-0.5410	2.4436	-0.0033
C	-1.3148	-1.6547	-1.3124
C	-2.3027	-1.6111	-2.2778
C	-2.0587	-1.5111	-3.6990
S	-3.9223	-1.6106	-1.5826
C	-3.2510	-1.6491	0.0073
S	-3.9234	-1.6183	1.5970
C	-2.3046	-1.6235	2.2933
C	-2.0576	-1.5190	3.7140
C	-1.3162	-1.6637	1.3281
C	-1.8403	-1.6760	0.0076
C	2.1025	-0.3025	1.3178
C	2.5430	-1.1897	2.2814
C	2.3391	-1.0273	3.7032
S	3.3253	-2.6068	1.5853
C	3.0328	-1.9992	-0.0035
S	3.3288	-2.6011	-1.5936
C	2.5461	-1.1828	-2.2869
C	2.3393	-1.0192	-3.7086
C	2.1039	-0.2990	-1.3208
C	2.3727	-0.7522	-0.0019
H	0.9406	3.3525	-6.5451
H	-0.7962	3.4102	-6.4618
H	3.3149	0.8198	-5.6477
H	2.4712	2.3410	-5.6191
H	3.2516	0.8012	-8.1818
H	2.3960	2.3496	-8.1659
H	4.0640	2.2553	-7.5526
H	2.4384	-2.4971	-6.5346
H	3.3550	-1.0205	-6.4601
H	-0.9497	-3.2891	-5.6575
H	0.7888	-3.3080	-5.5857
H	0.8930	-3.2563	-8.1338
H	-0.8749	-3.2425	-8.1882
H	-0.0205	-4.6605	-7.5330
H	-3.3797	-0.8664	-6.5273
H	-2.5611	-2.3999	-6.4550
H	-2.3618	2.4544	-5.6139
H	-3.2570	0.9626	-5.5757
H	-3.2610	0.8991	-8.1233
H	-4.0068	2.3885	-7.4965
H	-2.3497	2.4150	-8.1474
H	2.4461	-2.4909	6.5402
H	3.3647	-1.0165	6.4399
H	3.3244	0.8196	5.6377
H	2.4765	2.3379	5.5857
H	4.0723	2.2921	7.5164
H	2.4057	2.3843	8.1346
H	3.2712	0.8419	8.1693
H	-0.7835	3.4168	6.4572
H	0.9537	3.3586	6.5273
H	-2.3535	2.4641	5.6265
H	-3.2454	0.9705	5.5745
H	-3.2511	0.8881	8.1240
H	-2.3514	2.4105	8.1574
H	-4.0073	2.3751	7.5040
H	-2.5530	-2.3906	6.4772
H	-3.3707	-0.8564	6.5417
H	-0.9442	-3.2821	5.6615
H	0.7942	-3.3019	5.5886
H	-0.0129	-4.6541	7.5362
H	0.8993	-3.2491	8.1375
H	-0.8688	-3.2369	8.1914
H	-1.3201	1.0578	1.5577
H	-0.7144	1.5547	3.9415
H	-0.7108	1.5596	-3.9456
H	-1.3178	1.0632	-1.5691
H	-0.2528	-1.6532	-1.5552
H	-0.9870	-1.3865	-3.9392
H	-0.9852	-1.3942	3.9502
H	-0.2545	-1.6626	1.5720
H	1.5856	0.6247	1.5622
H	1.7201	-0.1449	3.9470
H	1.7073	-0.1452	-3.9499
H	1.5867	0.6285	-1.5630
