304

C	-5.2573	-0.7974	-8.2925
N	-5.2105	-0.0185	-7.0580
C	-3.9180	-1.4767	-8.5489
C	-3.7221	-2.8243	-8.1778
C	-2.4816	-3.4422	-8.4406
C	-1.4165	-2.7014	-8.9972
C	-1.6193	-1.3513	-9.3484
C	-2.8653	-0.7311	-9.1171
C	-3.0673	0.7312	-9.4701
C	-3.5653	0.9390	-10.9107
C	-0.4770	-0.5296	-9.9363
N	0.1508	0.2744	-8.8917
C	-0.0658	-3.3625	-9.2043
C	0.0984	-3.9877	-10.6003
C	-2.2679	-4.9099	-8.0910
N	-1.5817	-5.0538	-6.8097
C	-4.8309	-3.5964	-7.4841
C	-5.7756	-4.3340	-8.4473
C	-2.8027	9.3032	0.6247
N	-3.3384	7.9447	0.6098
C	-1.3037	9.3011	0.9004
C	-0.8476	9.1804	2.2307
C	0.5356	9.2179	2.4967
C	1.4628	9.3372	1.4395
C	0.9979	9.4367	0.1118
C	-0.3852	9.3880	-0.1662
C	-0.8818	9.4260	-1.6002
C	-1.1444	10.8474	-2.1232
C	2.0050	9.5611	-1.0264
N	2.5369	8.2515	-1.3923
C	2.9513	9.3628	1.7304
C	3.4849	10.7864	1.9711
C	1.0442	9.0782	3.9278
N	1.4479	7.6984	4.1782
C	-1.8513	9.0124	3.3564
C	-2.2860	10.3470	3.9853
C	8.5798	-2.2538	4.2167
N	7.2304	-1.8241	4.5672
C	8.6017	-2.8501	2.8143
C	8.9955	-2.0601	1.7130
C	9.0298	-2.6351	0.4256
C	8.6049	-3.9665	0.2239
C	8.1958	-4.7398	1.3297
C	8.1805	-4.1820	2.6260
C	7.7104	-5.0080	3.8094
C	8.8512	-5.7864	4.4890
C	7.7160	-6.1730	1.1291
N	6.2572	-6.2072	1.0869
C	8.5985	-4.5507	-1.1777
C	9.9066	-5.2761	-1.5369
C	9.5046	-1.8121	-0.7662
N	8.3800	-1.2488	-1.5087
C	9.3710	-0.6025	1.9160
C	10.8590	-0.3857	2.2364
C	-4.4607	-2.6078	8.2631
N	-3.4783	-1.6645	7.7392
C	-5.2566	-3.2560	7.1370
C	-6.3342	-2.5525	6.5564
C	-7.0948	-3.1635	5.5389
C	-6.7626	-4.4548	5.0768
C	-5.6738	-5.1412	5.6519
C	-4.8980	-4.5350	6.6626
C	-3.6831	-5.2491	7.2278
C	-3.9994	-6.1524	8.4313
C	-5.3084	-6.5256	5.1300
N	-4.5417	-6.4122	3.8933
C	-7.5729	-5.1017	3.9689
C	-8.7580	-5.9272	4.4997
C	-8.2554	-2.4157	4.8932
N	-7.8281	-1.8079	3.6346
C	-6.6597	-1.1475	7.0315
C	-7.6938	-1.1151	8.1693
C	1.4515	1.6700	-6.7079
C	2.1382	2.3069	-5.6851
C	3.5382	2.1755	-5.5720
C	4.2270	1.3962	-6.5176
C	3.5271	0.7484	-7.5324
C	2.1318	0.8714	-7.6491
C	1.4131	0.1531	-8.7062
N	4.2381	2.7971	-4.5047
C	3.8375	4.0764	-4.0404
C	3.8169	4.3603	-2.6586
C	3.4014	5.6017	-2.2010
C	2.9800	6.6023	-3.0994
C	2.5028	7.9056	-2.6263
C	3.0012	6.3112	-4.4745
C	3.4314	5.0734	-4.9449
C	5.2742	2.0939	-3.8354
C	5.1523	0.7135	-3.5713
C	6.1568	0.0353	-2.8962
C	7.3141	0.7075	-2.4540
C	8.3820	0.0150	-1.7274
C	7.4261	2.0842	-2.7191
C	6.4294	2.7703	-3.4071
C	-5.1143	1.3328	-4.4923
C	-5.1448	1.9604	-3.2561
C	-6.2303	1.7604	-2.3775
C	-7.2831	0.9188	-2.7779
C	-7.2333	0.2761	-4.0117
C	-6.1552	0.4712	-4.8921
C	-6.1209	-0.2265	-6.1798
N	-6.2454	2.3706	-1.0973
C	-6.7092	1.6361	0.0264
C	-6.4145	0.2628	0.1541
C	-6.8458	-0.4497	1.2625
C	-7.5739	0.1829	2.2900
C	-8.0033	-0.5466	3.4870
C	-7.8638	1.5523	2.1560
C	-7.4492	2.2715	1.0381
C	-5.7031	3.6689	-0.9156
C	-5.9317	4.6778	-1.8672
C	-5.3722	5.9403	-1.6936
C	-4.5874	6.2421	-0.5670
C	-4.0106	7.5801	-0.4194
C	-4.3708	5.2283	0.3876
C	-4.9126	3.9631	0.2158
C	-0.3843	-5.3662	-4.1672
C	0.1380	-5.5910	-2.9021
C	-0.4916	-6.4919	-2.0171
C	-1.6604	-7.1524	-2.4351
C	-2.1853	-6.9084	-3.7009
C	-1.5580	-6.0200	-4.5921
C	-2.1341	-5.7934	-5.9196
N	0.0345	-6.7168	-0.7184
C	-0.8404	-6.8096	0.3949
C	-1.9987	-6.0070	0.4648
C	-2.8398	-6.0806	1.5646
C	-2.5492	-6.9424	2.6407
C	-3.4136	-7.0157	3.8213
C	-1.3907	-7.7341	2.5669
C	-0.5520	-7.6839	1.4576
C	1.4394	-6.7340	-0.5162
C	2.2878	-7.3703	-1.4388
C	3.6664	-7.3528	-1.2445
C	4.2372	-6.7229	-0.1252
C	5.6918	-6.7020	0.0486
C	3.3782	-6.0953	0.7985
C	2.0054	-6.0935	0.6055
C	0.6463	5.0471	6.5809
C	0.9089	3.7106	6.8702
C	1.7170	2.9497	6.0084
C	2.2651	3.5623	4.8619
C	2.0133	4.8981	4.5925
C	1.1953	5.6658	5.4451
C	0.8986	7.0697	5.1506
N	1.9637	1.5788	6.2777
C	0.9105	0.7481	6.7394
C	1.1603	-0.2590	7.6875
C	0.1269	-1.0885	8.1139
C	-1.1826	-0.9284	7.6279
C	-2.2556	-1.8086	8.0960
C	-1.4250	0.0884	6.6830
C	-0.3987	0.9087	6.2406
C	3.2321	1.0172	5.9812
C	4.4092	1.7431	6.2355
C	5.6478	1.2042	5.8995
C	5.7542	-0.0763	5.3297
C	7.0682	-0.6226	4.9828
C	4.5704	-0.8032	5.0929
C	3.3310	-0.2665	5.4046
H	-6.0848	-1.5292	-8.2927
H	-5.4685	-0.0973	-9.1151
H	-3.7735	1.1823	-8.7610
H	-2.1244	1.2727	-9.3183
H	-2.8589	0.5259	-11.6456
H	-3.6973	2.0078	-11.1322
H	-4.5291	0.4369	-11.0804
H	-0.8793	0.1636	-10.6904
H	0.2501	-1.1727	-10.4630
H	0.7330	-2.6268	-9.0390
H	0.0874	-4.1246	-8.4293
H	1.0832	-4.4649	-10.7071
H	-0.6698	-4.7514	-10.7898
H	-0.0022	-3.2311	-11.3917
H	-1.6272	-5.3714	-8.8581
H	-3.2219	-5.4661	-8.1152
H	-5.4136	-2.9118	-6.8532
H	-4.3914	-4.3160	-6.7805
H	-5.2274	-5.0592	-9.0654
H	-6.5580	-4.8772	-7.8976
H	-6.2675	-3.6331	-9.1367
H	-3.3150	9.8479	1.4324
H	-3.0345	9.8503	-0.3066
H	-1.7983	8.8274	-1.6882
H	-0.1565	8.9228	-2.2538
H	-1.8974	11.3639	-1.5112
H	-0.2311	11.4583	-2.0893
H	-1.5039	10.8292	-3.1624
H	2.8526	10.1772	-0.6900
H	1.5668	10.0899	-1.8920
H	3.4940	8.8941	0.8990
H	3.1623	8.7306	2.6027
H	4.5642	10.7743	2.1802
H	3.3165	11.4323	1.0969
H	2.9800	11.2663	2.8221
H	0.2938	9.4342	4.6557
H	1.9321	9.7139	4.0626
H	-2.7281	8.4684	2.9822
H	-1.4277	8.3637	4.1349
H	-3.0212	10.1868	4.7871
H	-1.4281	10.8868	4.4114
H	-2.7413	11.0124	3.2375
H	9.3175	-1.4381	4.3185
H	8.8778	-3.0273	4.9408
H	6.9279	-5.7030	3.4780
H	7.2197	-4.3501	4.5386
H	9.3384	-6.4804	3.7885
H	9.6344	-5.1105	4.8624
H	8.4764	-6.3726	5.3403
H	8.1714	-6.6262	0.2309
H	8.0383	-6.7874	1.9832
H	8.3982	-3.7519	-1.9034
H	7.7552	-5.2463	-1.2841
H	9.8703	-5.6764	-2.5604
H	10.7706	-4.5992	-1.4688
H	10.1018	-6.1119	-0.8497
H	10.2223	-1.0346	-0.4479
H	10.0556	-2.4680	-1.4575
H	8.7566	-0.1752	2.7200
H	9.1010	-0.0243	1.0224
H	11.0832	0.6810	2.3816
H	11.1526	-0.9232	3.1491
H	11.4985	-0.7610	1.4247
H	-5.1489	-2.0385	8.9068
H	-3.9982	-3.3725	8.9126
H	-2.9221	-4.5112	7.5140
H	-3.2079	-5.8458	6.4376
H	-4.7283	-6.9304	8.1634
H	-3.0923	-6.6487	8.8056
H	-4.4376	-5.5744	9.2574
H	-6.2308	-7.0786	4.8966
H	-4.7798	-7.1191	5.8970
H	-6.9157	-5.7370	3.3609
H	-7.9346	-4.3253	3.2822
H	-8.4203	-6.7354	5.1650
H	-9.4520	-5.3051	5.0838
H	-9.3240	-6.3823	3.6744
H	-8.6899	-1.6748	5.5872
H	-9.0606	-3.1283	4.6591
H	-7.0275	-0.5487	6.1872
H	-5.7343	-0.6498	7.3493
H	-7.8931	-0.0840	8.4949
H	-8.6472	-1.5645	7.8560
H	-7.3456	-1.6844	9.0433
H	0.3668	1.7498	-6.7841
H	1.5968	2.9002	-4.9483
H	5.3094	1.2933	-6.4417
H	4.0747	0.1390	-8.2551
H	2.0325	-0.5204	-9.3352
H	4.1165	3.5880	-1.9503
H	3.3651	5.8168	-1.1326
H	2.0981	8.5814	-3.4092
H	2.6836	7.0735	-5.1898
H	3.4468	4.8661	-6.0147
H	4.2537	0.1863	-3.8919
H	6.0582	-1.0279	-2.6750
H	9.2120	0.6621	-1.3726
H	8.3179	2.6229	-2.3906
H	6.5326	3.8360	-3.6105
H	-4.2679	1.4706	-5.1658
H	-4.3193	2.6015	-2.9472
H	-8.1286	0.7611	-2.1087
H	-8.0539	-0.3827	-4.3053
H	-6.9375	-0.9596	-6.3503
H	-5.8307	-0.2317	-0.6222
H	-6.6031	-1.5068	1.3747
H	-8.4880	0.0690	4.2737
H	-8.4324	2.0596	2.9388
H	-7.6848	3.3316	0.9452
H	-6.5447	4.4613	-2.7420
H	-5.5576	6.7153	-2.4409
H	-4.1929	8.2734	-1.2675
H	-3.7456	5.4530	1.2521
H	-4.7218	3.1806	0.9501
H	0.0921	-4.6600	-4.8479
H	1.0360	-5.0649	-2.5782
H	-2.1528	-7.8512	-1.7591
H	-3.0939	-7.4287	-4.0129
H	-3.0941	-6.3161	-6.1161
H	-2.2195	-5.3163	-0.3488
H	-3.7276	-5.4508	1.6300
H	-3.0287	-7.6328	4.6607
H	-1.1511	-8.4128	3.3889
H	0.3387	-8.3101	1.4112
H	1.8590	-7.8681	-2.3083
H	4.3155	-7.8471	-1.9710
H	6.2819	-7.1332	-0.7871
H	3.8214	-5.5858	1.6545
H	1.3527	-5.5846	1.3146
H	0.0130	5.6275	7.2557
H	0.4845	3.2443	7.7591
H	2.8797	2.9714	4.1831
H	2.4191	5.3734	3.6991
H	0.1592	7.5582	5.8193
H	2.1693	-0.3889	8.0787
H	0.3347	-1.8684	8.8502
H	-1.9442	-2.6170	8.7908
H	-2.4355	0.1996	6.2890
H	-0.5944	1.6794	5.4950
H	4.3426	2.7339	6.6843
H	6.5542	1.7814	6.0963
H	7.9252	0.0739	5.1001
H	4.6511	-1.7878	4.6316
H	2.4212	-0.8280	5.1928
