120

C	-0.0387	2.8472	-4.9326
N	-0.0905	3.6184	-3.6898
C	0.0161	1.3306	-4.8640
C	-1.1824	0.5851	-4.8480
C	-1.1298	-0.8252	-4.8427
C	0.1147	-1.4899	-4.8007
C	1.3094	-0.7382	-4.8093
C	1.2637	0.6727	-4.8152
C	2.5512	1.4781	-4.7888
C	3.1110	1.7795	-6.1906
C	2.6494	-1.4512	-4.8141
N	3.2868	-1.7814	-3.5395
C	0.1669	-3.0077	-4.7720
C	0.1983	-3.6363	-6.1767
C	-2.4166	-1.6313	-4.8839
N	-3.0670	-2.0109	-3.6287
C	-2.5225	1.2989	-4.8537
C	-3.0608	1.5669	-6.2699
C	-2.5370	-1.4836	4.8681
N	-3.1506	-1.9045	3.6086
C	-1.2527	-0.6754	4.8328
C	-1.3103	0.7338	4.7821
C	-0.1148	1.4833	4.8099
C	1.1351	0.8287	4.8316
C	1.1851	-0.5813	4.8722
C	-0.0063	-1.3374	4.8460
C	0.0528	-2.8558	4.8386
C	0.0679	-3.4761	6.2467
C	2.5273	-1.2865	4.9393
N	3.2091	-1.6399	3.6945
C	2.4192	1.6392	4.8236
C	2.9189	2.0012	6.2333
C	-0.1763	3.0007	4.8176
N	-0.1897	3.7239	3.5461
C	-2.6518	1.4423	4.7093
C	-3.2427	1.7769	6.0905
C	4.6096	-2.4563	-1.1090
C	5.1924	-2.7542	0.1194
Br	6.8826	-3.6595	0.1539
C	4.5825	-2.4131	1.3228
C	3.3422	-1.7512	1.2996
C	2.6731	-1.3845	2.5612
C	2.7445	-1.4482	0.0666
C	3.3696	-1.7943	-1.1408
C	2.7329	-1.4681	-2.4300
C	-4.4011	-2.7801	-1.2237
C	-4.9817	-3.1292	-0.0075
Br	-6.6076	-4.1458	-0.0093
C	-4.4153	-2.7597	1.2086
C	-3.2250	-2.0115	1.2123
C	-2.6146	-1.5973	2.4884
C	-2.6292	-1.6568	-0.0075
C	-3.2078	-2.0364	-1.2286
C	-2.5664	-1.6624	-2.5037
C	-0.1952	5.2223	1.1253
C	-0.2136	5.8839	-0.0990
Br	-0.2834	7.8000	-0.1230
C	-0.1828	5.1931	-1.3073
C	-0.1287	3.7882	-1.2933
C	-0.0851	3.0278	-2.5550
C	-0.1107	3.1113	-0.0644
C	-0.1454	3.8175	1.1472
C	-0.1337	3.0957	2.4330
H	0.8237	3.2390	-5.4924
H	-0.9061	3.1748	-5.5248
H	2.3873	2.4221	-4.2507
H	3.3103	0.9423	-4.2016
H	2.3934	2.3541	-6.7932
H	4.0416	2.3601	-6.1256
H	3.3252	0.8548	-6.7445
H	3.3936	-0.8697	-5.3785
H	2.5810	-2.3980	-5.3700
H	-0.6973	-3.3980	-4.2164
H	1.0464	-3.3396	-4.2029
H	1.0761	-3.2996	-6.7460
H	-0.6890	-3.3554	-6.7612
H	0.2323	-4.7329	-6.1163
H	-3.1835	-1.1024	-5.4693
H	-2.2659	-2.5696	-5.4382
H	-3.2585	0.7093	-4.2893
H	-2.4387	2.2496	-4.3090
H	-4.0288	2.0855	-6.2308
H	-3.1989	0.6316	-6.8302
H	-2.3658	2.1885	-6.8518
H	-3.3202	-0.9375	5.4150
H	-2.3982	-2.4026	5.4569
H	-0.8005	-3.2563	4.2736
H	0.9429	-3.1872	4.2853
H	0.9328	-3.1288	6.8291
H	0.1131	-4.5726	6.1924
H	-0.8316	-3.2010	6.8154
H	2.4437	-2.2233	5.5102
H	3.2478	-0.6901	5.5187
H	3.2040	1.0856	4.2896
H	2.2722	2.5597	4.2414
H	3.1162	1.1007	6.8318
H	2.1738	2.5935	6.7830
H	3.8478	2.5861	6.1829
H	-1.0643	3.3466	5.3673
H	0.6651	3.4180	5.3906
H	-2.5501	2.3663	4.1231
H	-3.3665	0.8242	4.1482
H	-4.2101	2.2882	5.9901
H	-3.3988	0.8694	6.6906
H	-2.5720	2.4296	6.6668
H	5.0872	-2.7233	-2.0504
H	5.0376	-2.6451	2.2843
H	1.6907	-0.8848	2.4641
H	1.7792	-0.9350	0.0469
H	1.7605	-0.9429	-2.3749
H	-4.8443	-3.0701	-2.1752
H	-4.8698	-3.0301	2.1603
H	-1.6792	-1.0109	2.4145
H	-1.7025	-1.0766	-0.0065
H	-1.6350	-1.0704	-2.4236
H	-0.2209	5.7625	2.0703
H	-0.1965	5.7102	-2.2654
H	-0.0439	1.9265	-2.4566
H	-0.0698	2.0188	-0.0512
H	-0.0773	1.9921	2.3723
