108

O	3.0594	-1.6513	-3.3020
O	3.0896	1.6245	-3.2850
O	-3.0609	-1.6443	-3.1980
O	-3.1121	1.7425	-3.2920
N	-1.1927	-4.0374	-1.1100
N	1.2190	-4.0754	-1.0940
N	1.1829	-3.0009	-3.2670
N	-1.2663	-3.0631	-3.3330
N	-1.2153	-1.1817	-4.4820
N	1.2172	-1.2546	-4.6310
N	1.1894	1.1731	-4.5450
N	-1.2820	1.2324	-4.6000
N	-1.1754	3.0360	-3.2790
N	1.2686	3.0219	-3.3280
N	1.2537	3.9969	-1.1100
N	-1.1817	4.0983	-1.1040
C	-0.0217	-4.7729	-0.7500
H	-0.0385	-5.7024	-1.1200
C	1.7485	-4.0332	-2.4270
H	1.5906	-4.9110	-2.8560
H	2.7268	-3.8953	-2.3740
C	-1.7814	-4.0886	-2.4310
H	-2.7615	-3.9801	-2.3490
H	-1.6079	-4.9781	-2.8250
C	-0.0086	-3.1416	-4.0660
H	0.0286	-3.9669	-4.6290
C	1.9353	-1.9306	-3.6920
C	-0.0114	-1.8820	-4.9350
H	-0.0697	-2.1127	-5.9060
C	-1.9251	-1.8966	-3.6190
C	1.7052	-0.0082	-5.1990
H	2.6933	0.0011	-5.1420
H	1.4576	0.0240	-6.1560
C	-1.7414	0.0051	-5.1280
H	-1.5060	-0.0315	-6.0900
H	-2.7293	-0.0148	-5.0620
C	-0.0101	1.8611	-4.9660
H	0.0223	2.0995	-5.9370
C	1.9471	1.9111	-3.6490
C	0.0281	3.1485	-4.0440
H	0.0203	3.9815	-4.5980
C	-1.9469	1.9808	-3.6530
C	1.8194	4.0110	-2.4370
H	1.6802	4.9072	-2.8320
H	2.7961	3.8644	-2.3670
C	-1.7139	4.1023	-2.4570
H	-2.6992	4.0079	-2.4150
H	-1.5104	4.9714	-2.8830
C	0.0386	4.7423	-0.7750
H	0.0710	5.6724	-1.1390
O	3.0594	-1.6513	3.3020
O	3.0896	1.6245	3.2850
O	-3.0609	-1.6443	3.1980
O	-3.1121	1.7425	3.2920
N	-1.1927	-4.0374	1.1100
N	1.2190	-4.0754	1.0940
N	1.1829	-3.0009	3.2670
N	-1.2663	-3.0631	3.3330
N	-1.2153	-1.1817	4.4820
N	1.2172	-1.2546	4.6310
N	1.1894	1.1731	4.5450
N	-1.2820	1.2324	4.6000
N	-1.1754	3.0360	3.2790
N	1.2686	3.0219	3.3280
N	1.2537	3.9969	1.1100
N	-1.1817	4.0983	1.1040
C	-0.0217	-4.7729	0.7500
H	-0.0385	-5.7024	1.1200
C	1.7485	-4.0332	2.4270
H	1.5906	-4.9110	2.8560
H	2.7268	-3.8953	2.3740
C	-1.7814	-4.0886	2.4310
H	-2.7615	-3.9801	2.3490
H	-1.6079	-4.9781	2.8250
C	-0.0086	-3.1416	4.0660
H	0.0286	-3.9669	4.6290
C	1.9353	-1.9306	3.6920
C	-0.0114	-1.8820	4.9350
H	-0.0697	-2.1127	5.9060
C	-1.9251	-1.8966	3.6190
C	1.7052	-0.0082	5.1990
H	2.6933	0.0011	5.1420
H	1.4576	0.0240	6.1560
C	-1.7414	0.0051	5.1280
H	-1.5060	-0.0315	6.0900
H	-2.7293	-0.0148	5.0620
C	-0.0101	1.8611	4.9660
H	0.0223	2.0995	5.9370
C	1.9471	1.9111	3.6490
C	0.0281	3.1485	4.0440
H	0.0203	3.9815	4.5980
C	-1.9469	1.9808	3.6530
C	1.8194	4.0110	2.4370
H	1.6802	4.9072	2.8320
H	2.7961	3.8644	2.3670
C	-1.7139	4.1023	2.4570
H	-2.6992	4.0079	2.4150
H	-1.5104	4.9714	2.8830
C	0.0386	4.7423	0.7750
H	0.0710	5.6724	1.1390
O	3.0602	-3.2189	-0.0000
O	3.0375	3.0714	-0.0000
O	-3.0996	-3.3083	-0.0000
O	-3.0818	3.4232	-0.0000
C	1.9538	-3.7383	-0.0000
C	-1.9759	-3.7454	-0.0000
C	1.9399	3.6333	-0.0000
C	-1.9338	3.8251	-0.0000
