126

O	2.9784	3.6478	-1.2858
O	-3.0495	4.2143	-1.8638
O	3.0197	0.9631	-3.9787
O	-2.9860	1.5567	-3.9647
O	3.0431	-2.5914	-3.8642
O	-2.9675	-2.1764	-3.2139
O	2.9101	-3.8363	-0.6176
O	-3.0911	-4.2871	-0.2295
O	3.1387	-2.6140	3.1297
O	-2.9608	-2.9199	3.1933
O	2.9101	0.7513	4.2597
O	-3.0177	0.3138	4.1244
O	3.0839	3.7646	2.4496
O	-2.9846	3.3139	1.7995
N	1.2633	4.1623	-2.7646
N	1.2824	5.1043	-0.7332
N	-1.1207	4.5471	-3.0424
N	-1.1693	5.1130	-0.9071
N	1.1756	0.3508	-5.2558
N	1.3008	2.4165	-4.4624
N	-1.2234	0.5543	-5.0918
N	-1.1164	2.7048	-4.6319
N	1.1337	-3.8505	-3.7740
N	1.1502	-2.0627	-5.0295
N	-1.2967	-3.7304	-3.5579
N	-1.2566	-1.8304	-4.7131
N	1.1832	-4.7788	0.5911
N	1.1673	-4.9528	-1.6148
N	-1.2113	-5.2066	0.7398
N	-1.2486	-4.9184	-1.4577
N	1.3349	-2.6201	4.5730
N	1.3739	-4.0894	2.9038
N	-1.1007	-2.6838	4.5503
N	-1.0614	-4.2122	2.9435
N	1.0973	1.9060	5.0973
N	1.1351	-0.3170	5.2807
N	-1.2935	1.6791	4.8145
N	-1.3053	-0.4501	5.4600
N	1.1852	4.8131	1.6616
N	1.1220	3.8504	3.6403
N	-1.2433	4.8088	1.4817
N	-1.2788	3.5793	3.3472
C	1.9289	4.2501	-1.5493
C	0.1932	5.1003	-2.8443
H	0.3901	5.8259	-3.5010
C	0.1202	5.6542	-1.3818
H	0.1280	6.6526	-1.3662
C	-1.8879	4.5768	-1.9490
C	1.9126	3.5960	-3.9512
H	2.8538	3.3899	-3.7291
H	1.9195	4.2829	-4.6688
C	-1.5994	4.0323	-4.3139
H	-1.3185	4.6521	-5.0359
H	-2.5902	4.0163	-4.3011
C	1.9388	1.2041	-4.5353
C	0.0069	0.9682	-5.7460
H	-0.0615	0.8807	-6.7382
C	0.1257	2.4635	-5.3101
H	0.2496	3.0725	-6.0913
C	-1.8887	1.6107	-4.4867
C	1.6935	-0.9041	-5.7475
H	1.4749	-0.9875	-6.7090
H	2.6797	-0.9036	-5.6594
C	-1.8624	-0.7000	-5.3814
H	-2.8134	-0.6420	-5.1176
H	-1.8298	-0.8545	-6.3602
C	1.8737	-2.8229	-4.1620
C	-0.1493	-3.8870	-4.4344
H	-0.2374	-4.6945	-5.0146
C	-0.1514	-2.6136	-5.2560
H	-0.2940	-2.8117	-6.2253
C	-1.9453	-2.5390	-3.7587
C	1.6647	-4.9311	-2.9812
H	1.4356	-5.7904	-3.4181
H	2.6499	-4.8572	-2.9615
C	-1.8501	-4.7930	-2.7551
H	-1.7389	-5.6493	-3.2422
H	-2.8216	-4.6334	-2.6414
C	1.8563	-4.4499	-0.5578
C	0.0979	-5.6832	0.2999
H	0.2859	-6.6061	0.6360
C	-0.0223	-5.6470	-1.2151
H	-0.0592	-6.5675	-1.6028
C	-1.9563	-4.7424	-0.3002
C	1.9339	-4.8734	1.8511
H	2.8656	-4.5783	1.6931
H	1.9625	-5.8221	2.1370
C	-1.6625	-5.2304	2.0950
H	-2.6465	-5.1120	2.1060
H	-1.4636	-6.1202	2.4783
C	2.0563	-3.0453	3.4956
C	0.1373	-3.3959	4.7848
H	0.1423	-3.8389	5.6807
C	0.1719	-4.4321	3.6396
H	0.2223	-5.3623	3.9991
C	-1.8287	-3.2236	3.5290
C	1.7885	-1.5891	5.4591
H	1.6461	-1.8891	6.3924
H	2.7613	-1.4648	5.3276
C	-1.7147	-1.8113	5.5480
H	-1.4907	-2.1517	6.4504
H	-2.6995	-1.8558	5.4477
C	1.8238	0.7757	4.8137
C	-0.1616	1.5957	5.7251
H	-0.3094	2.1266	6.5580
C	-0.0566	0.0847	6.0088
H	0.0283	-0.1039	6.9877
C	-1.9831	0.4899	4.7324
C	1.5964	3.2389	4.8740
H	1.3290	3.8102	5.6373
H	2.5857	3.2105	4.8540
C	-1.9243	2.9246	4.4402
H	-1.9256	3.5319	5.2205
H	-2.8676	2.7456	4.1970
C	1.9135	4.1090	2.5610
C	-0.0952	5.2620	2.2156
H	-0.1096	6.2523	2.3490
C	-0.1657	4.5129	3.5430
H	-0.3291	5.1305	4.3116
C	-1.9405	3.8579	2.1586
C	1.7842	5.4981	0.5225
H	2.7605	5.3399	0.5358
H	1.6384	6.4709	0.6282
C	-1.7829	5.5135	0.3446
H	-2.7585	5.3459	0.2942
H	-1.6484	6.4841	0.4756
