126

N	-2.1020	4.8696	-2.3190
N	-4.4614	3.3693	-1.5879
N	3.1733	2.9236	3.7779
N	3.1570	4.5726	1.4051
C	-3.4156	5.5002	-2.1981
C	-4.5073	4.4795	-2.5376
C	-3.4860	6.6989	-3.1437
C	3.5464	4.3386	3.8123
C	4.1492	4.7424	2.4638
C	4.5508	4.5653	4.9426
C	-1.2481	4.8003	-1.3433
C	0.0710	4.1658	-1.5327
C	0.3870	3.4766	-2.7166
C	1.6546	2.9031	-2.8938
C	2.6097	3.0130	-1.8685
C	2.3096	3.6975	-0.6816
C	1.0344	4.2667	-0.5183
C	3.3443	3.8205	0.3647
C	-4.3024	2.1318	-1.9438
C	-4.2778	1.0489	-0.9392
C	-4.2731	1.3308	0.4375
C	1.9673	2.4964	3.9933
H	-3.3323	6.3757	-4.1966
H	-3.5862	5.8687	-1.1604
H	-4.3776	4.1207	-3.5836
H	-5.5042	4.9635	-2.4623
H	-4.4752	7.1989	-3.0593
H	4.8381	5.6368	4.9932
H	-1.4883	5.2366	-0.3807
H	-0.3491	3.3920	-3.5073
H	3.5925	2.5739	-1.9938
H	0.7908	4.7985	0.3940
H	4.2804	3.2871	0.2422
H	-4.2092	1.8756	-2.9939
H	-4.2758	2.3589	0.7804
H	1.1751	3.1995	4.2278
H	-2.6976	7.4344	-2.8772
H	2.6562	4.9798	4.0094
H	5.0623	4.1383	2.2610
H	4.4469	5.8128	2.4969
H	4.0945	4.2793	5.9136
H	5.4631	3.9509	4.7828
N	-2.1036	-4.4428	-3.0561
N	-4.4630	-3.0595	-2.1211
N	3.1710	1.8090	-4.4233
N	3.1537	-1.0702	-4.6651
C	-3.4183	-4.6537	-3.6620
C	-4.5087	-4.4361	-2.6078
C	-3.4891	-6.0717	-4.2273
C	3.5432	1.1321	-5.6658
C	4.1465	-0.2384	-5.3417
C	4.5477	1.9974	-6.4268
C	-1.2503	-3.5637	-3.4854
C	0.0698	-3.4106	-2.8411
C	0.3858	-4.0909	-1.6527
C	1.6542	-3.9572	-1.0686
C	2.6086	-3.1244	-1.6770
C	2.3075	-2.4395	-2.8628
C	1.0319	-2.5820	-3.4361
C	3.3423	-1.5946	-3.4921
C	-4.3036	-2.7491	-0.8715
C	-4.2780	-1.3375	-0.4366
C	-4.2740	-0.2858	-1.3682
C	1.9644	2.2106	-4.1600
H	-4.4776	-6.2484	-4.7025
H	-3.5888	-3.9392	-4.4995
H	-4.3790	-5.1639	-1.7740
H	-5.5065	-4.6138	-3.0646
H	-2.7011	-6.2092	-4.9979
H	4.8340	1.5053	-7.3809
H	-1.4909	-2.9478	-4.3443
H	-0.3504	-4.7336	-1.1840
H	3.5920	-3.0138	-1.2346
H	0.7879	-2.0577	-4.3535
H	4.2788	-1.4349	-2.9700
H	-4.2099	-3.5305	-0.1251
H	-4.2776	-0.5037	-2.4303
H	1.1731	2.0619	-4.8852
H	-3.3348	-6.8216	-3.4211
H	2.6524	0.9818	-6.3182
H	5.0600	-0.1110	-4.7176
H	4.4427	-0.7442	-6.2849
H	4.0913	2.9813	-6.6651
H	5.4603	2.1661	-5.8157
N	-2.1010	-0.4251	5.3776
N	-4.4610	-0.3073	3.7125
N	3.1709	-4.7361	0.6430
N	3.1554	-3.5053	3.2573
C	-3.4157	-0.8446	5.8630
C	-4.5054	-0.0397	5.1487
C	-3.4855	-0.6250	7.3743
C	3.5438	-5.4725	1.8502
C	4.1471	-4.5071	2.8745
C	4.5476	-6.5647	1.4810
C	-1.2477	-1.2354	4.8295
C	0.0721	-0.7551	4.3740
C	0.3883	0.6142	4.3693
C	1.6563	1.0533	3.9605
C	2.6104	0.1094	3.5429
C	2.3094	-1.2605	3.5422
C	1.0343	-1.6850	3.9536
C	3.3436	-2.2275	3.1254
C	-4.3022	0.6201	2.8184
C	-4.2774	0.2916	1.3791
C	-4.2742	-1.0420	0.9343
C	1.9646	-4.7081	0.1644
H	-3.3304	0.4483	7.6203
H	-3.5858	-1.9272	5.6632
H	-4.3756	1.0457	5.3616
H	-5.5033	-0.3474	5.5306
H	-4.4736	-0.9473	7.7651
H	4.0910	-7.2634	0.7482
H	-1.4879	-2.2878	4.7259
H	-0.3469	1.3413	4.6921
H	3.5939	0.4383	3.2253
H	0.7908	-2.7406	3.9577
H	4.2807	-1.8551	2.7252
H	-4.2081	1.6569	3.1226
H	-4.2767	-1.8530	1.6527
H	1.1725	-5.2616	0.6563
H	-2.6963	-1.2237	7.8782
H	2.6531	-5.9631	2.3076
H	5.0611	-4.0304	2.4526
H	4.4445	-5.0712	3.7852
H	5.4604	-6.1204	1.0292
H	4.8352	-7.1445	2.3840
