168

C	-0.0806	-6.1023	3.2468
H	-0.2916	-7.2103	3.0804
C	1.1041	-5.9766	4.1483
H	0.8577	-6.5288	5.1148
C	1.3150	-4.4829	4.5067
H	1.6284	-3.9051	3.5757
C	0.0509	-3.9092	5.0522
H	-0.2155	-4.4288	6.0311
C	-1.0618	-4.0915	4.0629
H	-0.7654	-3.5532	3.1028
C	-2.4199	-3.5281	4.5182
H	-2.2950	-2.4356	4.8165
H	-3.1686	-3.6014	3.6607
O	2.2982	-6.5503	3.6208
O	2.3437	-4.3646	5.5263
O	0.2868	-2.5279	5.2911
O	-1.2117	-5.5145	3.7500
O	-2.9084	-4.2559	5.6157
C	-0.0956	-2.0357	6.5606
H	-0.3109	-2.9184	7.2481
C	1.0712	-1.2722	7.1064
H	0.8029	-0.9317	8.1612
C	1.3376	-0.0263	6.2675
H	1.5970	-0.3146	5.1962
C	0.0437	0.8009	6.3024
H	-0.2057	1.0966	7.3752
C	-1.0482	-0.0415	5.7323
H	-0.7498	-0.3485	4.6761
C	-2.3831	0.6824	5.6611
H	-2.2698	1.6210	5.0248
H	-3.1620	-0.0031	5.1876
O	2.2672	-2.0480	7.1883
O	2.3805	0.7994	6.8372
O	0.2509	-5.4983	1.9628
O	-1.2245	-1.2204	6.5079
O	-2.8096	1.0406	6.9378
H	3.1340	-6.3850	4.3317
H	2.9486	-5.2953	5.5514
H	-3.0223	-5.3235	5.3307
H	2.9059	-1.6580	8.0077
H	3.2413	0.1601	7.1259
H	-2.2149	0.4883	7.6957
C	-0.0774	6.1137	-3.2584
H	-0.2884	7.2224	-3.0930
C	1.1079	5.9884	-4.1599
H	0.8623	6.5407	-5.1265
C	1.3190	4.4942	-4.5173
H	1.6316	3.9164	-3.5860
C	0.0552	3.9207	-5.0638
H	-0.2104	4.4403	-6.0428
C	-1.0582	4.1031	-4.0753
H	-0.7626	3.5648	-3.1150
C	-2.4161	3.5398	-4.5317
H	-2.2910	2.4474	-4.8298
H	-3.1654	3.6138	-3.6755
O	2.3018	6.5615	-3.6306
O	2.3484	4.3764	-5.5369
O	0.2912	2.5385	-5.3030
O	-1.2082	5.5267	-3.7633
O	-2.9036	4.2677	-5.6295
C	-0.0904	2.0472	-6.5723
H	-0.3051	2.9304	-7.2607
C	1.0768	1.2827	-7.1178
H	0.8092	0.9430	-8.1721
C	1.3424	0.0376	-6.2780
H	1.6010	0.3259	-5.2065
C	0.0484	-0.7888	-6.3148
H	-0.2002	-1.0851	-7.3869
C	-1.0438	0.0537	-5.7455
H	-0.7462	0.3601	-4.6883
C	-2.3789	-0.6701	-5.6753
H	-2.2662	-1.6093	-5.0381
H	-3.1580	0.0155	-5.2024
O	2.2729	2.0592	-7.1981
O	2.3856	-0.7877	-6.8478
O	0.2531	5.5097	-1.9742
O	-1.2194	1.2320	-6.5204
O	-2.8044	-1.0282	-6.9523
H	3.0847	5.7788	-3.5512
H	3.3262	4.1679	-5.0534
H	-3.0253	3.5892	-6.4988
H	3.1548	1.3899	-7.1168
H	3.2503	-0.8225	-6.1515
H	-2.3664	-2.0108	-7.2255
C	-0.0811	3.2585	6.1029
H	-0.2925	3.0928	7.2100
C	1.1040	4.1601	5.9767
H	0.8578	5.1266	6.5289
C	1.3156	4.5175	4.4826
H	1.6287	3.5863	3.9049
C	0.0518	5.0636	3.9085
H	-0.2143	6.0434	4.4286
C	-1.0613	4.0756	4.0910
H	-0.7652	3.1154	3.5528
C	-2.4191	4.5310	3.5279
H	-2.2936	4.8289	2.4341
H	-3.1681	3.6738	3.6010
O	2.2977	3.6306	6.5511
O	2.3447	5.5375	4.3652
O	0.2884	5.3024	2.5273
O	-1.2119	3.7622	5.5147
O	-2.9073	5.6278	4.2550
C	-0.0934	6.5721	2.0349
H	-0.3087	7.2599	2.9189
C	1.0740	7.1174	1.2718
H	0.8061	8.1722	0.9312
C	1.3404	6.2783	0.0260
H	1.5992	5.2063	0.3152
C	0.0467	6.3146	-0.8010
H	-0.2021	7.3875	-1.0969
C	-1.0457	5.7450	0.0410
H	-0.7478	4.6887	0.3481
C	-2.3804	5.6744	-0.6833
H	-2.2671	5.0366	-1.6216
H	-3.1597	5.2012	0.0019
O	2.2697	7.1995	2.0486
O	2.3837	6.8478	-0.7980
O	0.2500	1.9736	5.4984
O	-1.2221	6.5193	1.2201
O	-2.8062	6.9507	-1.0409
H	2.6695	4.3229	7.3358
H	3.3105	5.1328	4.7353
H	-2.3216	5.7422	5.1910
H	2.8516	6.2614	1.9311
H	2.8809	6.0404	-1.3765
H	-2.4424	7.6857	-0.2925
C	-0.0769	-3.2470	-6.1145
H	-0.2874	-3.0807	-7.2226
C	1.1080	-4.1482	-5.9883
H	0.8622	-5.1153	-6.5398
C	1.3185	-4.5056	-4.4940
H	1.6313	-3.5745	-3.9160
C	0.0542	-5.0516	-3.9209
H	-0.2117	-6.0319	-4.4403
C	-1.0587	-4.0640	-4.1034
H	-0.7628	-3.1038	-3.5649
C	-2.4169	-4.5192	-3.5414
H	-2.2923	-4.8171	-2.4475
H	-3.1658	-3.6619	-3.6150
O	2.3023	-3.6194	-6.5609
O	2.3473	-5.5257	-4.3758
O	0.2897	-5.2910	-2.5386
O	-1.2081	-3.7506	-5.5272
O	-2.9047	-5.6160	-4.2688
C	-0.0926	-6.5606	-2.0466
H	-0.3073	-7.2484	-2.9307
C	1.0741	-7.1060	-1.2826
H	0.8059	-8.1603	-0.9430
C	1.3397	-6.2670	-0.0366
H	1.5988	-5.1950	-0.3256
C	0.0453	-6.3026	0.7887
H	-0.2038	-7.3754	1.0843
C	-1.0463	-5.7334	-0.0534
H	-0.7481	-4.6771	-0.3602
C	-2.3816	-5.6621	0.6691
H	-2.2689	-5.0248	1.6083
H	-3.1603	-5.1893	-0.0159
O	2.2704	-7.1877	-2.0593
O	2.3823	-6.8366	0.7882
O	0.2540	-1.9621	-5.5098
O	-1.2219	-6.5077	-1.2326
O	-2.8078	-6.9389	1.0272
H	2.8814	-4.4409	-7.0330
H	3.0120	-5.2835	-3.5200
H	-2.3169	-6.5222	-4.0122
H	3.1461	-6.9666	-1.4132
H	2.6540	-6.1181	1.5894
H	-2.2552	-7.2738	1.9296
