87

O	-4.0369	2.2590	0.6288
O	3.0307	3.5687	-0.4917
O	-0.0310	-4.7095	0.7416
O	1.5741	-4.4680	-0.9883
O	3.9430	2.4243	1.3712
O	-4.5279	0.9468	-1.2744
C	0.4279	1.7676	3.5547
C	1.4853	1.6598	-3.1902
C	2.0322	-2.3136	2.6619
H	2.9359	-2.0406	2.7681
C	1.4426	-0.4882	4.2870
H	0.7984	-0.4177	5.0359
H	2.3356	-0.6687	4.6749
C	-1.6790	0.4250	-3.4953
C	1.4838	0.8413	3.5441
C	2.6366	1.1221	2.8158
H	3.3519	0.4969	2.8179
C	-1.9236	0.9011	3.2719
C	-1.1779	-0.7498	-4.3241
H	-0.5952	-0.4086	-5.0483
H	-1.9526	-1.1981	-4.7469
C	-2.5794	1.7637	2.3841
H	-2.3833	2.6934	2.4078
C	2.7616	2.2988	2.0863
C	1.8929	-0.7366	-4.0644
H	1.4455	-0.4202	-4.8882
H	2.7389	-1.1758	-4.3300
C	-0.2859	-2.1048	3.2659
C	0.9986	-1.7573	-3.3759
C	-3.5089	1.2878	1.4703
C	-3.3926	1.2804	-2.0028
C	-0.9091	1.5145	4.2268
H	-0.7760	0.9052	4.9952
H	-1.2648	2.3706	4.5735
C	2.8517	2.5046	-1.3655
C	-0.4033	-1.7705	-3.5083
C	-2.8171	2.5411	-2.0403
H	-3.2177	3.2705	-1.5825
C	-1.0305	1.6716	-3.4618
C	0.4290	-3.7400	1.6189
C	-3.8446	-0.0576	1.4448
H	-4.5056	-0.3862	0.8456
C	-2.2083	-0.4725	3.2250
C	1.7510	-3.3480	1.7767
H	2.4462	-3.7760	1.2922
C	-1.6407	2.7139	-2.7637
H	-1.2376	3.5744	-2.7824
C	-0.5345	-3.6768	-1.9818
H	-1.0575	-4.3208	-1.5172
C	1.8273	2.6689	-2.2852
H	1.3460	3.4895	-2.3001
C	3.2643	0.3316	-2.2659
H	3.7754	-0.4694	-2.2711
C	-3.1857	-0.9140	2.3253
H	-3.4089	-1.8373	2.3142
C	1.5991	-2.7074	-2.5410
H	2.5458	-2.7177	-2.4576
C	1.0434	-1.6572	3.4011
C	-1.4514	-1.5108	4.0416
H	-2.0730	-2.2361	4.3024
H	-1.1109	-1.0893	4.8697
C	2.2101	0.4585	-3.1800
C	0.6052	2.9675	2.8566
H	-0.0859	3.6183	2.8879
C	1.7489	3.2445	2.1226
H	1.8371	4.0664	1.6545
C	-1.1267	-2.7502	-2.8291
H	-2.0678	-2.7856	-2.9505
C	0.3123	1.9362	-4.1268
H	0.3956	1.3632	-4.9294
H	0.3481	2.8816	-4.4233
C	4.0674	3.4986	0.4524
H	4.9286	3.4091	-0.0269
H	4.0933	4.3480	0.9588
C	-0.5700	-3.1347	2.3768
H	-1.4670	-3.4328	2.2845
C	0.8503	-3.6335	-1.8347
C	3.5942	1.3273	-1.3573
H	4.3101	1.2091	-0.7432
C	-5.0071	1.8730	-0.3171
H	-5.7759	1.4707	0.1594
H	-5.3331	2.6802	-0.7873
C	-2.8454	0.2453	-2.7509
H	-3.2745	-0.6033	-2.7572
C	0.8738	-5.3499	-0.1331
H	1.5311	-5.8580	0.4054
H	0.3747	-5.9998	-0.6865
