146

O	-1.0965	-7.9692	-4.7238
H	-0.3128	-7.4712	-5.1214
N	-0.6149	-5.1520	-4.5670
O	-1.9000	-7.6697	5.1624
H	-2.4439	-6.9105	5.5488
N	-1.3707	-4.8554	4.8996
O	-6.1561	4.3461	-5.5525
H	-5.3006	4.4702	-6.0762
N	-3.6933	2.9124	-5.2143
O	-5.2615	6.3459	4.1308
H	-4.4156	6.0279	4.5826
N	-3.9850	3.6614	4.2473
N	5.0235	1.7365	-4.4642
O	7.1482	1.8460	5.3888
H	8.0626	1.7991	5.8225
N	4.4826	1.5560	5.0844
C	-0.2909	-5.4172	-3.3374
H	0.2895	-4.7066	-2.7622
C	-0.7828	-6.6384	-2.6559
C	-1.2596	-7.7847	-3.3476
C	-1.8825	-8.8104	-2.6311
H	-2.2717	-9.6736	-3.1561
C	-1.9810	-8.7542	-1.2412
H	-2.4799	-9.5642	-0.7252
C	-1.4425	-7.6705	-0.5288
C	-0.8462	-6.6179	-1.2510
H	-0.4361	-5.7681	-0.7197
C	-1.8037	-5.0422	3.6886
H	-2.1151	-4.1968	3.0874
C	-1.7677	-6.3787	3.0514
C	-1.7021	-7.5952	3.7806
C	-1.4744	-8.7938	3.0978
H	-1.3972	-9.7218	3.6509
C	-1.3745	-8.8164	1.7066
H	-1.1851	-9.7627	1.2178
C	-1.5163	-7.6357	0.9596
C	-1.7147	-6.4231	1.6468
H	-1.8152	-5.5012	1.0875
C	-3.6006	3.6002	-4.1155
H	-2.6567	3.6369	-3.5833
C	-4.7821	4.2442	-3.4917
C	-6.0094	4.4761	-4.1681
C	-7.1261	4.8961	-3.4388
H	-8.0719	5.0493	-3.9443
C	-7.0342	5.1500	-2.0697
H	-7.9271	5.4583	-1.5400
C	-5.8101	5.0048	-1.3967
C	-4.6916	4.5563	-2.1244
H	-3.7397	4.4343	-1.6224
C	-3.7491	3.9980	3.0140
H	-2.8827	3.6167	2.4911
C	-4.6865	4.8429	2.2464
C	-5.4230	5.9158	2.8093
C	-6.3147	6.6316	2.0033
H	-6.8805	7.4527	2.4256
C	-6.4461	6.3383	0.6450
H	-7.1090	6.9503	0.0463
C	-5.6991	5.3016	0.0609
C	-4.8342	4.5545	0.8799
H	-4.2864	3.7183	0.4611
O	7.3085	3.1704	-4.4560
H	8.0398	3.7903	-4.7854
C	5.2665	1.4712	-3.2158
H	4.6457	0.7634	-2.6804
C	6.3505	2.1423	-2.4629
C	7.3105	2.9815	-3.0703
C	8.2736	3.6217	-2.2701
H	9.0134	4.2705	-2.7206
C	8.2790	3.4484	-0.8837
H	9.0106	3.9838	-0.2922
C	7.3296	2.6179	-0.2675
C	6.3876	1.9533	-1.0722
H	5.6671	1.2886	-0.6124
C	4.6474	1.9659	3.8614
H	3.7880	2.1596	3.2333
C	5.9910	2.1390	3.2621
C	7.1884	2.0500	4.0064
C	8.4226	2.1736	3.3448
H	9.3489	2.1044	3.9000
C	8.4747	2.3675	1.9620
H	9.4422	2.4233	1.4776
C	7.2925	2.4572	1.2110
C	6.0587	2.3649	1.8783
H	5.1385	2.4590	1.3148
C	0.5309	-0.2997	-7.4607
H	0.6164	-0.3583	-8.5675
C	0.3234	-0.1603	-4.8007
H	0.2368	-0.1026	-3.6935
C	-0.6113	0.2536	7.4635
H	-0.7072	0.3088	8.5697
C	-0.3813	0.1192	4.8051
H	-0.2844	0.0630	3.6990
C	-0.2806	-3.9507	-5.2785
C	-0.1986	-4.0069	-6.6836
H	-0.3501	-4.9490	-7.1934
C	0.0849	-2.8593	-7.4373
H	0.1485	-2.9166	-8.5160
C	0.2633	-1.6423	-6.7805
C	0.1575	-1.5692	-5.3676
C	-0.1103	-2.7151	-4.6168
H	-0.2188	-2.6313	-3.5440
C	-2.6192	2.1467	-5.7794
C	-2.5314	2.0310	-7.1798
H	-3.2491	2.5438	-7.8088
C	-1.5168	1.2704	-7.7777
H	-1.4535	1.1957	-8.8562
C	-0.6033	0.5977	-6.9661
C	-0.7071	0.6778	-5.5543
C	-1.7029	1.4531	-4.9609
H	-1.7830	1.4855	-3.8818
C	3.9164	1.2032	-5.2116
C	4.0096	1.1514	-6.6164
H	4.9150	1.4855	-7.1076
C	2.9483	0.6642	-7.3939
H	3.0355	0.6230	-8.4719
C	1.7786	0.2402	-6.7608
C	1.6664	0.3108	-5.3495
C	2.7217	0.7932	-4.5782
H	2.5915	0.8727	-3.5082
C	-1.2357	-3.5750	5.5369
C	-1.3248	-3.5049	6.9406
H	-1.5317	-4.4015	7.5111
C	-1.1549	-2.2867	7.6151
H	-1.2288	-2.2450	8.6941
C	-0.8696	-1.1368	6.8792
C	-0.7513	-1.2040	5.4682
C	-0.9357	-2.4115	4.7964
H	-0.8052	-2.4464	3.7235
C	-3.1608	2.7917	5.0450
C	-3.2982	2.8355	6.4461
H	-4.0163	3.5115	6.8940
C	-2.5030	2.0326	7.2785
H	-2.6096	2.0882	8.3539
C	-1.5699	1.1706	6.7020
C	-1.4434	1.0986	5.2919
C	-2.2356	1.8930	4.4664
H	-2.1302	1.7911	3.3955
C	3.2070	1.2594	5.6790
C	3.0860	1.3039	7.0815
H	3.9398	1.5845	7.6866
C	1.8705	0.9981	7.7129
H	1.7895	1.0436	8.7911
C	0.7735	0.6303	6.9340
C	0.8918	0.5590	5.5230
C	2.0980	0.8640	4.8974
H	2.1696	0.7626	3.8232
