648

C	-5.0164	13.7931	-7.8752
C	-6.0321	14.6711	-8.3041
C	-5.6679	15.8026	-9.0536
H	-6.4263	16.4934	-9.4013
C	-4.3303	16.0577	-9.3758
H	-4.0958	16.9439	-9.9520
C	-3.3045	15.1917	-8.9603
C	-3.6521	14.0471	-8.2144
C	-5.2227	12.5170	-7.0438
H	-6.2701	12.2948	-6.7532
C	-7.4898	14.4287	-7.9924
H	-8.0763	15.3623	-8.1368
H	-7.6153	14.1430	-6.9266
C	-8.0764	13.3550	-8.9061
H	-8.0096	13.6786	-9.9668
H	-9.1441	13.1943	-8.6512
H	-7.5365	12.3921	-8.7888
C	-1.8749	15.5127	-9.3243
H	-1.8424	16.2498	-10.1563
H	-1.3571	14.6023	-9.6942
C	-1.1235	16.1068	-8.1352
H	-1.1403	15.4177	-7.2659
H	-1.5838	17.0732	-7.8382
H	-0.0655	16.2897	-8.4189
C	-2.6739	12.9820	-7.6950
H	-1.6070	13.1439	-7.9497
C	7.5840	14.5796	3.1071
C	8.3385	15.6984	2.6990
C	8.7084	16.6473	3.6671
H	9.2922	17.5143	3.3851
C	8.3515	16.4871	5.0111
H	8.6719	17.2353	5.7256
C	7.6108	15.3724	5.4382
C	7.2200	14.4166	4.4787
C	7.0808	13.4527	2.1927
H	7.3443	13.5473	1.1196
C	8.7720	15.8969	1.2664
H	9.0569	16.9576	1.0919
H	7.9326	15.6808	0.5729
C	9.9776	15.0200	0.9370
H	9.7429	13.9468	1.0881
H	10.8375	15.2961	1.5854
H	10.2700	15.1719	-0.1229
C	7.2635	15.2302	6.9002
H	6.1976	14.9400	7.0175
H	7.3802	16.2056	7.4222
C	8.1733	14.2125	7.5846
H	8.0787	13.2118	7.1141
H	7.8931	14.1271	8.6554
H	9.2316	14.5433	7.5188
C	6.3993	13.1488	4.7577
H	6.0963	12.9925	5.8129
C	15.9314	1.8547	-3.7375
C	17.2766	1.4392	-3.6681
C	18.2530	2.2141	-4.3163
H	19.2955	1.9216	-4.2785
C	17.9079	3.3761	-5.0144
H	18.6926	3.9393	-5.5057
C	16.5741	3.8099	-5.0894
C	15.5810	3.0488	-4.4382
C	14.7314	1.1234	-3.1152
H	14.9666	0.1851	-2.5727
C	17.6973	0.2007	-2.9151
H	18.7083	-0.1256	-3.2421
H	17.0110	-0.6425	-3.1392
C	17.7455	0.4649	-1.4111
H	18.0672	-0.4577	-0.8832
H	16.7480	0.7628	-1.0281
H	18.4748	1.2735	-1.1890
C	16.2494	5.0638	-5.8652
H	17.1615	5.6881	-5.9878
H	15.5199	5.6877	-5.3091
C	15.7136	4.7282	-7.2556
H	15.4693	5.6675	-7.7944
H	14.7953	4.1087	-7.1886
H	16.4822	4.1772	-7.8384
C	14.0791	3.3693	-4.4071
H	13.7722	4.2951	-4.9329
C	4.0042	1.5029	-16.3757
C	3.9914	1.0569	-17.7129
C	4.6453	1.8331	-18.6842
H	4.6519	1.5182	-19.7207
C	5.2833	3.0317	-18.3442
H	5.7631	3.6045	-19.1280
C	5.2895	3.5004	-17.0203
C	4.6524	2.7270	-16.0292
C	3.3613	0.7807	-15.1815
H	2.8511	-0.1761	-15.4149
C	3.2956	-0.2169	-18.1306
H	3.5375	-1.0387	-17.4259
H	3.6575	-0.5445	-19.1298
C	1.7844	-0.0150	-18.2172
H	1.3654	0.2933	-17.2382
H	1.3001	-0.9658	-18.5246
H	1.5460	0.7643	-18.9737
C	5.9605	4.8152	-16.7047
H	6.6545	5.1017	-17.5244
H	6.5803	4.7250	-15.7884
C	4.9289	5.9301	-16.5452
H	4.2204	5.7016	-15.7225
H	4.3565	6.0573	-17.4884
H	5.4465	6.8842	-16.3119
C	4.5721	3.0715	-14.5338
H	5.0675	4.0157	-14.2298
C	-8.9696	11.9303	7.5734
C	-10.0937	12.7744	7.6767
C	-10.1861	13.6359	8.7824
H	-11.0387	14.2934	8.8906
C	-9.1794	13.6770	9.7543
H	-9.2853	14.3676	10.5816
C	-8.0447	12.8550	9.6595
C	-7.9434	11.9705	8.5682
C	-8.7103	10.9081	6.4553
H	-9.4884	10.8497	5.6662
C	-11.1907	12.7841	6.6386
H	-12.1059	13.2670	7.0473
H	-11.4799	11.7465	6.3701
C	-10.7632	13.5583	5.3941
H	-10.5503	14.6163	5.6587
H	-11.5830	13.5392	4.6449
H	-9.8559	13.1112	4.9381
C	-6.9743	12.9482	10.7219
H	-6.6489	11.9343	11.0341
H	-7.3769	13.4412	11.6338
C	-5.7809	13.7631	10.2291
H	-6.1030	14.7946	9.9709
H	-5.3197	13.2950	9.3347
H	-5.0155	13.8225	11.0319
C	-6.7955	10.9823	8.3163
H	-5.9823	10.9848	9.0708
C	-11.9003	-0.0638	-11.5579
C	-13.1289	0.3818	-12.0837
C	-13.6091	-0.2128	-13.2625
H	-14.5469	0.1139	-13.6942
C	-12.8895	-1.2266	-13.9068
H	-13.3008	-1.6587	-14.8098
C	-11.6623	-1.6837	-13.3971
C	-11.1600	-1.0914	-12.2212
C	-11.2269	0.4607	-10.2806
H	-11.7788	1.2530	-9.7350
C	-13.9334	1.4796	-11.4288
H	-13.9795	1.3247	-10.3303
H	-14.9837	1.4580	-11.7914
C	-13.3482	2.8528	-11.7480
H	-13.9549	3.6396	-11.2544
H	-13.3658	3.0284	-12.8449
H	-12.3016	2.9354	-11.3876
C	-10.9235	-2.7840	-14.1234
H	-9.8464	-2.5330	-14.2129
H	-11.3082	-2.8851	-15.1617
C	-11.1026	-4.1282	-13.4205
H	-12.1800	-4.3931	-13.3665
H	-10.6854	-4.0994	-12.3930
H	-10.5726	-4.9184	-13.9940
C	-9.8364	-1.4480	-11.5298
H	-9.2317	-2.2353	-12.0238
C	-2.4341	4.5233	-12.1286
C	-2.4966	5.7946	-11.5343
H	-1.6205	6.4336	-11.5324
C	-3.6846	6.2355	-10.9301
C	-4.8132	5.4012	-10.9293
H	-5.7309	5.7367	-10.4578
C	-4.7566	4.1301	-11.5162
C	-3.5670	3.6963	-12.1190
H	-3.5194	2.7107	-12.5698
B	-1.1004	4.0131	-12.7730
O	-0.9687	2.6828	-13.3741
C	0.3729	2.6966	-13.7148
C	1.0672	1.6421	-14.3143
H	0.5662	0.7166	-14.5682
C	2.4348	1.8211	-14.5616
C	3.0823	3.0446	-14.2139
C	2.3629	4.0873	-13.6127
H	2.8454	5.0154	-13.3337
C	1.0009	3.8818	-13.3731
O	0.1439	4.7877	-12.7672
B	-3.7502	7.6344	-10.2297
O	-2.6055	8.5458	-10.1445
C	-3.1611	9.5706	-9.3947
C	-2.4990	10.7333	-8.9899
H	-1.4652	10.9068	-9.2550
C	-3.2219	11.6620	-8.2266
C	-4.5825	11.4131	-7.8780
C	-5.2225	10.2364	-8.2910
H	-6.2521	10.0331	-8.0272
C	-4.4827	9.3304	-9.0561
O	-4.9493	8.1222	-9.5421
B	-6.0040	3.1852	-11.4672
O	-7.2681	3.5655	-10.8312
C	-7.9818	2.3891	-10.9787
C	-9.2835	2.1667	-10.5187
H	-9.8358	2.9451	-10.0085
C	-9.8397	0.8982	-10.7321
C	-9.0962	-0.1207	-11.3992
C	-7.7920	0.1276	-11.8487
H	-7.2119	-0.6406	-12.3429
C	-7.2589	1.4003	-11.6236
O	-5.9852	1.8116	-11.9763
C	-0.4207	13.0391	1.5576
C	-0.7912	13.0891	0.2070
H	-0.0357	13.2573	-0.5533
C	-2.1312	12.9092	-0.1673
C	-3.1034	12.6849	0.8204
H	-4.1399	12.5409	0.5343
C	-2.7380	12.6318	2.1746
C	-1.3958	12.8109	2.5378
H	-1.1090	12.7631	3.5831
B	1.0792	13.2037	1.9696
O	1.5390	13.1009	3.3568
C	2.9063	13.2132	3.1720
C	3.8678	13.1435	4.1834
H	3.5811	13.0035	5.2175
C	5.2134	13.2396	3.8062
C	5.5762	13.4023	2.4364
C	4.5920	13.4666	1.4402
H	4.8541	13.5730	0.3956
C	3.2560	13.3695	1.8422
O	2.1603	13.3783	0.9964
B	-2.5278	12.9327	-1.6821
O	-1.5519	13.1322	-2.7578
C	-2.3747	13.0092	-3.8648
C	-1.9596	13.0964	-5.1978
H	-0.9246	13.2823	-5.4489
C	-2.9332	12.9300	-6.1933
C	-4.2933	12.6816	-5.8459
C	-4.6836	12.5968	-4.5012
H	-5.7105	12.4027	-4.2250
C	-3.6946	12.7659	-3.5276
O	-3.8945	12.7010	-2.1582
B	-3.8113	12.3449	3.2780
O	-5.2300	12.1256	2.9813
C	-5.7083	11.8515	4.2530
C	-7.0330	11.5423	4.5731
H	-7.7976	11.5075	3.8076
C	-7.3318	11.2713	5.9152
C	-6.3092	11.3108	6.9096
C	-4.9889	11.6258	6.5634
H	-4.2031	11.6552	7.3080
C	-4.7170	11.8937	5.2185
O	-3.4724	12.2029	4.6971
C	9.9548	-1.6395	-8.2590
C	9.2029	-0.9871	-9.2456
H	9.3221	0.0809	-9.3969
C	8.2858	-1.7051	-10.0286
C	8.1272	-3.0848	-9.8223
H	7.4148	-3.6416	-10.4204
C	8.8811	-3.7450	-8.8391
C	9.7949	-3.0184	-8.0624
H	10.3737	-3.5233	-7.2961
B	10.9462	-0.8275	-7.3586
O	11.7212	-1.4404	-6.2775
C	12.3500	-0.3208	-5.7596
C	13.2255	-0.3152	-4.6697
H	13.4755	-1.2310	-4.1514
C	13.7629	0.9168	-4.2749
C	13.4135	2.1164	-4.9632
C	12.5291	2.0860	-6.0509
H	12.2534	2.9897	-6.5773
C	12.0124	0.8425	-6.4287
O	11.1213	0.6242	-7.4682
B	7.4293	-0.9589	-11.1065
O	7.5266	0.4853	-11.3385
C	6.5472	0.6479	-12.3036
C	6.1775	1.8654	-12.8846
H	6.6676	2.7885	-12.6057
C	5.1380	1.8465	-13.8251
C	4.4913	0.6233	-14.1705
C	4.8810	-0.5844	-13.5725
H	4.3893	-1.5168	-13.8146
C	5.9199	-0.5386	-12.6362
O	6.4127	-1.6240	-11.9276
C	10.8382	4.7095	4.8123
C	11.4512	4.2191	3.6515
H	11.9143	3.2387	3.6584
C	11.4605	4.9866	2.4779
C	10.8571	6.2536	2.4721
H	10.8619	6.8485	1.5649
C	10.2390	6.7503	3.6290
C	10.2343	5.9761	4.7984
H	9.7540	6.3549	5.6946
B	12.1232	4.4249	1.1787
O	12.7372	3.0949	1.1022
C	13.1197	3.0772	-0.2284
C	13.7589	2.0148	-0.8760
H	14.0043	1.1040	-0.3450
C	14.0589	2.1712	-2.2365
C	13.7137	3.3712	-2.9250
C	13.0717	4.4196	-2.2536
H	12.7961	5.3322	-2.7656
C	12.7877	4.2426	-0.8971
O	12.1477	5.1640	-0.0855
B	9.5434	8.1534	3.6104
O	9.4868	9.0015	2.4169
C	8.7542	10.0698	2.9080
C	8.3743	11.1987	2.1740
H	8.6523	11.3063	1.1335
C	7.6130	12.1746	2.8314
C	7.2488	12.0118	4.2013
C	7.6432	10.8719	4.9145
H	7.3651	10.7334	5.9510
C	8.3988	9.9115	4.2358
O	8.8558	8.7201	4.7749
B	-8.6879	5.2811	8.5778
O	-7.6956	6.0937	9.2869
C	-7.8848	7.3155	8.6621
C	-7.1654	8.4828	8.9286
H	-6.3884	8.4989	9.6823
C	-7.4792	9.6260	8.1802
C	-8.5004	9.5866	7.1857
C	-9.2043	8.4002	6.9327
H	-9.9731	8.3539	6.1727
C	-8.8716	7.2745	7.6917
O	-9.4449	6.0206	7.5626
B	-10.7954	-3.8367	-6.0999
O	-10.1362	-4.2657	-7.3360
C	-10.3638	-3.1573	-8.1341
C	-9.9269	-3.0048	-9.4529
H	-9.3656	-3.7862	-9.9488
C	-10.2376	-1.8036	-10.1033
C	-10.9790	-0.7842	-9.4357
C	-11.4005	-0.9594	-8.1111
H	-11.9519	-0.1887	-7.5887
C	-11.0758	-2.1650	-7.4822
O	-11.3972	-2.5027	-6.1793
C	5.0169	-13.7903	7.8780
C	6.0331	-14.6708	8.3009
C	5.6696	-15.8041	9.0474
H	6.4279	-16.4971	9.3915
C	4.3322	-16.0608	9.3706
H	4.0977	-16.9493	9.9432
C	3.3059	-15.1931	8.9599
C	3.6520	-14.0464	8.2177
C	5.2226	-12.5133	7.0502
H	6.2692	-12.2899	6.7596
C	7.4898	-14.4279	7.9864
H	7.6122	-14.1384	6.9216
H	8.0754	-15.3632	8.1244
C	8.0805	-13.3584	8.9019
H	7.5550	-12.3895	8.7741
H	9.1540	-13.2138	8.6579
H	7.9976	-13.6769	9.9629
C	1.8748	-15.5165	9.3204
H	1.3570	-14.6094	9.6965
H	1.8432	-16.2593	10.1468
C	1.1232	-16.1034	8.1277
H	0.0757	-16.3225	8.4214
H	1.6051	-17.0487	7.8007
H	1.1092	-15.3927	7.2750
C	2.6740	-12.9814	7.7000
H	1.6062	-13.1429	7.9537
C	-7.5819	-14.5804	-3.1162
C	-8.3385	-15.6960	-2.7043
C	-8.7011	-16.6515	-3.6675
H	-9.2802	-17.5206	-3.3824
C	-8.3430	-16.4973	-5.0120
H	-8.6583	-17.2510	-5.7230
C	-7.6099	-15.3797	-5.4441
C	-7.2175	-14.4207	-4.4875
C	-7.0766	-13.4528	-2.2031
H	-7.3396	-13.5462	-1.1299
C	-8.7794	-15.8856	-1.2730
H	-7.9399	-15.6759	-0.5764
H	-9.0744	-16.9433	-1.0954
C	-9.9784	-14.9977	-0.9464
H	-10.2883	-15.1647	0.1064
H	-10.8318	-15.2491	-1.6119
H	-9.7257	-13.9247	-1.0733
C	-7.2757	-15.2368	-6.9097
H	-7.3908	-16.2130	-7.4296
H	-6.2140	-14.9406	-7.0374
C	-8.1973	-14.2263	-7.5880
H	-8.1018	-13.2236	-7.1221
H	-9.2528	-14.5617	-7.5092
H	-7.9306	-14.1440	-8.6626
C	-6.3964	-13.1523	-4.7693
H	-6.0954	-12.9981	-5.8257
C	-15.9322	-1.8562	3.7471
C	-17.2758	-1.4381	3.6737
C	-18.2568	-2.2170	4.3110
H	-19.2997	-1.9256	4.2656
C	-17.9159	-3.3832	5.0051
H	-18.7046	-3.9489	5.4855
C	-16.5815	-3.8151	5.0906
C	-15.5852	-3.0518	4.4479
C	-14.7312	-1.1306	3.1209
H	-14.9636	-0.1928	2.5771
C	-17.6924	-0.1955	2.9247
H	-17.0054	0.6449	3.1555
H	-18.7028	0.1314	3.2505
C	-17.7364	-0.4514	1.4197
H	-18.0492	0.4764	0.8943
H	-18.4703	-1.2539	1.1913
H	-16.7397	-0.7543	1.0381
C	-16.2604	-5.0682	5.8684
H	-15.5508	-5.7060	5.3020
H	-17.1786	-5.6785	6.0148
C	-15.6922	-4.7309	7.2450
H	-16.4371	-4.1543	7.8350
H	-14.7618	-4.1336	7.1568
H	-15.4596	-5.6697	7.7911
C	-14.0830	-3.3755	4.4172
H	-13.7795	-4.3021	4.9444
C	-4.0059	-1.4951	16.3754
C	-3.9899	-1.0522	17.7129
C	-4.6407	-1.8298	18.6850
H	-4.6451	-1.5159	19.7213
C	-5.2781	-3.0279	18.3455
H	-5.7562	-3.6023	19.1303
C	-5.2864	-3.4973	17.0212
C	-4.6546	-2.7205	16.0289
C	-3.3637	-0.7734	15.1806
H	-2.8541	0.1829	15.4135
C	-3.2918	0.2198	18.1309
H	-3.6554	0.5497	19.1286
H	-3.5310	1.0427	17.4254
C	-1.7810	0.0164	18.2208
H	-1.3595	-0.2813	17.2393
H	-1.5459	-0.7705	18.9697
H	-1.2976	0.9643	18.5409
C	-5.9510	-4.8165	16.7084
H	-6.5797	-4.7263	15.7980
H	-6.6363	-5.1087	17.5341
C	-4.9153	-5.9245	16.5362
H	-5.4287	-6.8798	16.3002
H	-4.3372	-6.0543	17.4759
H	-4.2111	-5.6885	15.7113
C	-4.5772	-3.0645	14.5331
H	-5.0726	-4.0087	14.2292
C	8.9683	-11.9296	-7.5776
C	10.0916	-12.7734	-7.6819
C	10.1817	-13.6385	-8.7854
H	11.0316	-14.3026	-8.8902
C	9.1779	-13.6754	-9.7607
H	9.2838	-14.3661	-10.5880
C	8.0451	-12.8512	-9.6666
C	7.9415	-11.9696	-8.5717
C	8.7112	-10.9077	-6.4602
H	9.4905	-10.8482	-5.6735
C	11.1903	-12.7799	-6.6467
H	11.4770	-11.7410	-6.3814
H	12.1052	-13.2602	-7.0569
C	10.7663	-13.5526	-5.4006
H	10.5440	-14.6087	-5.6639
H	9.8646	-13.0996	-4.9383
H	11.5897	-13.5374	-4.6565
C	6.9753	-12.9431	-10.7289
H	7.3766	-13.4371	-11.6401
H	6.6524	-11.9273	-11.0423
C	5.7818	-13.7557	-10.2342
H	5.0119	-13.8092	-11.0323
H	5.3275	-13.2893	-9.3346
H	6.1030	-14.7881	-9.9813
C	6.7919	-10.9838	-8.3158
H	5.9770	-10.9887	-9.0680
C	11.8929	0.0639	11.5674
C	13.1252	-0.3786	12.0879
C	13.6102	0.2208	13.2620
H	14.5548	-0.0987	13.6867
C	12.8923	1.2338	13.9085
H	13.3084	1.6724	14.8075
C	11.6622	1.6874	13.4035
C	11.1560	1.0930	12.2306
C	11.2201	-0.4594	10.2902
H	11.7686	-1.2532	9.7447
C	13.9299	-1.4702	11.4259
H	14.9828	-1.4426	11.7805
H	13.9685	-1.3103	10.3276
C	13.3551	-2.8482	11.7446
H	12.3034	-2.9318	11.4008
H	13.3920	-3.0318	12.8398
H	13.9572	-3.6277	11.2332
C	10.9321	2.7964	14.1226
H	11.3195	2.9056	15.1601
H	9.8532	2.5515	14.2166
C	11.1153	4.1328	13.4063
H	10.5750	4.9281	13.9600
H	10.7154	4.0891	12.3721
H	12.1933	4.3994	13.3645
C	9.8321	1.4528	11.5388
H	9.2286	2.2420	12.0317
C	2.4281	-4.5206	12.1306
C	2.4904	-5.7902	11.5354
H	1.6160	-6.4309	11.5361
C	3.6771	-6.2281	10.9267
C	4.8048	-5.3933	10.9232
H	5.7213	-5.7259	10.4490
C	4.7486	-4.1225	11.5152
C	3.5601	-3.6916	12.1207
H	3.5134	-2.7072	12.5730
B	1.0969	-4.0109	12.7795
O	0.9661	-2.6818	13.3822
C	-0.3759	-2.6930	13.7197
C	-1.0698	-1.6371	14.3175
H	-0.5684	-0.7133	14.5741
C	-2.4392	-1.8143	14.5603
C	-3.0862	-3.0374	14.2115
C	-2.3674	-4.0806	13.6115
H	-2.8501	-5.0078	13.3301
C	-1.0049	-3.8777	13.3751
O	-0.1493	-4.7830	12.7705
B	3.7429	-7.6279	10.2286
O	2.6003	-8.5435	10.1477
C	3.1584	-9.5695	9.4011
C	2.4975	-10.7352	8.9990
H	1.4640	-10.9104	9.2669
C	3.2215	-11.6620	8.2345
C	4.5805	-11.4115	7.8850
C	5.2187	-10.2333	8.2952
H	6.2473	-10.0278	8.0294
C	4.4774	-9.3272	9.0587
O	4.9419	-8.1149	9.5405
B	5.9947	-3.1779	11.4697
O	7.2580	-3.5570	10.8322
C	7.9725	-2.3811	10.9824
C	9.2737	-2.1592	10.5236
H	9.8236	-2.9373	10.0108
C	9.8317	-0.8932	10.7403
C	9.0897	0.1258	11.4073
C	7.7846	-0.1205	11.8581
H	7.2063	0.6468	12.3562
C	7.2506	-1.3927	11.6301
O	5.9764	-1.8061	11.9834
C	0.4260	-13.0417	-1.5531
C	0.7953	-13.0935	-0.2014
H	0.0379	-13.2568	0.5576
C	2.1352	-12.9182	0.1750
C	3.1106	-12.6955	-0.8101
H	4.1469	-12.5553	-0.5224
C	2.7478	-12.6396	-2.1644
C	1.4059	-12.8173	-2.5309
H	1.1212	-12.7697	-3.5770
B	-1.0745	-13.2020	-1.9695
O	-1.5322	-13.1001	-3.3586
C	-2.9004	-13.2135	-3.1773
C	-3.8617	-13.1478	-4.1912
H	-3.5726	-13.0112	-5.2257
C	-5.2096	-13.2435	-3.8168
C	-5.5726	-13.4038	-2.4468
C	-4.5898	-13.4674	-1.4493
H	-4.8541	-13.5743	-0.4052
C	-3.2531	-13.3684	-1.8483
O	-2.1595	-13.3755	-0.9994
B	2.5318	-12.9425	1.6886
O	1.5543	-13.1327	2.7643
C	2.3762	-13.0077	3.8709
C	1.9606	-13.0908	5.2030
H	0.9239	-13.2735	5.4539
C	2.9329	-12.9254	6.1991
C	4.2938	-12.6781	5.8516
C	4.6863	-12.5997	4.5076
H	5.7150	-12.4097	4.2322
C	3.6974	-12.7705	3.5333
O	3.8993	-12.7120	2.1646
B	3.8214	-12.3483	-3.2664
O	5.2412	-12.1271	-2.9726
C	5.7167	-11.8540	-4.2453
C	7.0411	-11.5445	-4.5706
H	7.8090	-11.5104	-3.8088
C	7.3355	-11.2746	-5.9153
C	6.3105	-11.3162	-6.9067
C	4.9906	-11.6322	-6.5549
H	4.2023	-11.6637	-7.2965
C	4.7235	-11.8977	-5.2090
O	3.4812	-12.2072	-4.6849
C	-9.9383	1.6385	8.2407
C	-9.1920	0.9901	9.2349
H	-9.3111	-0.0772	9.3874
C	-8.2839	1.7105	10.0239
C	-8.1269	3.0909	9.8172
H	-7.4208	3.6498	10.4198
C	-8.8765	3.7469	8.8282
C	-9.7813	3.0179	8.0438
H	-10.3552	3.5199	7.2735
B	-10.9218	0.8237	7.3378
O	-11.6987	1.4351	6.2568
C	-12.3332	0.3141	5.7474
C	-13.2154	0.3076	4.6631
H	-13.4620	1.2219	4.1399
C	-13.7600	-0.9245	4.2775
C	-13.4128	-2.1224	4.9689
C	-12.5204	-2.0901	6.0505
H	-12.2419	-2.9920	6.5790
C	-11.9964	-0.8467	6.4207
O	-11.1002	-0.6259	7.4536
B	-7.4337	0.9679	11.1088
O	-7.5324	-0.4765	11.3409
C	-6.5530	-0.6391	12.3060
C	-6.1821	-1.8564	12.8852
H	-6.6729	-2.7799	12.6058
C	-5.1432	-1.8388	13.8257
C	-4.4950	-0.6161	14.1698
C	-4.8848	0.5923	13.5729
H	-4.3909	1.5238	13.8131
C	-5.9243	0.5475	12.6386
O	-6.4165	1.6327	11.9293
C	-10.8251	-4.7080	-4.8030
C	-11.4468	-4.2237	-3.6424
H	-11.9078	-3.2419	-3.6477
C	-11.4671	-4.9993	-2.4737
C	-10.8625	-6.2652	-2.4702
H	-10.8735	-6.8650	-1.5675
C	-10.2371	-6.7551	-3.6273
C	-10.2214	-5.9736	-4.7913
H	-9.7350	-6.3483	-5.6859
B	-12.1448	-4.4455	-1.1762
O	-12.7543	-3.1152	-1.0965
C	-13.1369	-3.0966	0.2335
C	-13.7670	-2.0315	0.8835
H	-14.0076	-1.1183	0.3535
C	-14.0624	-2.1831	2.2451
C	-13.7206	-3.3839	2.9350
C	-13.0917	-4.4385	2.2602
H	-12.8216	-5.3533	2.7718
C	-12.8110	-4.2655	0.9020
O	-12.1761	-5.1884	0.0872
B	-9.5469	-8.1595	-3.6153
O	-9.4888	-9.0099	-2.4238
C	-8.7571	-10.0776	-2.9177
C	-8.3727	-11.2032	-2.1850
H	-8.6477	-11.3113	-1.1442
C	-7.6095	-12.1768	-2.8430
C	-7.2473	-12.0154	-4.2128
C	-7.6473	-10.8768	-4.9269
H	-7.3735	-10.7386	-5.9648
C	-8.4055	-9.9184	-4.2469
O	-8.8631	-8.7252	-4.7830
B	8.6884	-5.2804	-8.5879
O	7.6921	-6.0928	-9.2920
C	7.8800	-7.3148	-8.6671
C	7.1595	-8.4840	-8.9307
H	6.3826	-8.5017	-9.6852
C	7.4733	-9.6264	-8.1812
C	8.4970	-9.5858	-7.1891
C	9.2029	-8.4009	-6.9410
H	9.9751	-8.3547	-6.1835
C	8.8695	-7.2750	-7.6993
O	9.4448	-6.0212	-7.5727
B	10.8113	3.8399	6.1114
O	10.1482	4.2701	7.3445
C	10.3704	3.1595	8.1422
C	9.9296	3.0089	9.4591
H	9.3681	3.7911	9.9527
C	10.2356	1.8067	10.1126
C	10.9750	0.7858	9.4451
C	11.4002	0.9593	8.1207
H	11.9513	0.1863	7.6005
C	11.0805	2.1657	7.4922
O	11.4083	2.5035	6.1899
