180

C	-6.0038	2.1280	0.2836
C	-6.1601	0.9684	1.0789
C	-6.2357	-0.2914	0.4403
C	-6.2028	-0.3863	-0.9843
C	-6.0495	0.7726	-1.7777
C	-5.9696	2.0313	-1.1406
C	-5.8247	3.5399	0.8554
C	-6.3173	-1.6214	1.1988
C	-5.9714	0.6612	-3.2965
C	-5.8793	3.3529	-1.9104
C	-4.4173	4.7982	-3.1599
C	-2.9844	5.0893	-3.5690
C	-2.0762	5.4013	-2.5353
C	-0.7457	5.6874	-2.9119
C	-0.4741	5.6317	-4.2921
C	-1.3660	5.3181	-5.3352
C	-2.6927	5.0320	-4.9485
C	1.1006	6.8883	-5.6903
C	2.0973	6.6691	-6.6680
C	2.3352	7.6231	-7.6773
C	1.5764	8.8078	-7.7189
C	0.5802	9.0362	-6.7509
C	0.3446	8.0806	-5.7435
C	-6.3045	1.0765	2.5896
C	-5.1693	1.2328	4.6843
C	-3.8584	1.1593	5.4465
C	-3.6456	1.9909	6.5533
C	-2.4641	1.8684	7.3034
C	-1.4366	0.9307	7.0287
C	-1.7144	0.1113	5.9065
C	-2.8848	0.1995	5.1318
C	6.0201	-1.9140	1.2766
C	6.1201	-0.6268	1.8557
C	6.2159	0.4983	1.0049
C	6.2631	0.3349	-0.4131
C	6.1695	-0.9506	-0.9911
C	6.0635	-2.0757	-0.1414
C	5.8242	-3.2055	2.0820
C	6.2299	1.9454	1.5123
C	6.1660	-1.1170	-2.5069
C	6.0035	-3.5131	-0.6669
C	4.5618	-5.0895	-1.7797
C	3.1265	-5.5234	-2.0322
C	2.9989	-6.0527	-3.3243
C	1.7363	-6.4967	-3.7143
C	0.6805	-6.3935	-2.7940
C	0.7978	-5.8689	-1.4825
C	2.0863	-5.4120	-1.0804
C	-0.7443	-8.0787	-3.8712
C	-1.6111	-8.2088	-4.9802
C	-1.7499	-9.4449	-5.6410
C	-1.0226	-10.5662	-5.1994
C	-0.1561	-10.4484	-4.0961
C	-0.0181	-9.2116	-3.4373
C	6.1527	-0.4546	3.3682
C	4.8461	-0.2350	5.3581
C	3.4841	0.0255	5.9743
C	3.1042	-0.6593	7.1461
C	1.8572	-0.4011	7.7466
C	0.9704	0.5451	7.1875
C	1.3529	1.2256	6.0107
C	2.6020	0.9714	5.4108
C	-0.3311	0.9795	9.2037
C	-1.3604	0.3666	9.9533
C	-1.4234	0.5275	11.3509
C	0.6371	1.7557	9.8809
C	0.5757	1.9178	11.2783
C	-0.4544	1.3038	12.0158
C	-6.3749	-1.7881	-1.5790
C	-5.2508	-3.8335	-2.1296
C	-3.9313	-4.5120	-2.4623
C	-4.0137	-5.8810	-2.1730
C	-2.8865	-6.6614	-2.4279
C	-1.7493	-6.0326	-2.9610
C	-1.6555	-4.6509	-3.2645
C	-2.8050	-3.8498	-3.0038
N	-4.5003	3.7249	-2.1834
N	0.8603	5.9307	-4.6808
N	-5.0237	0.9557	3.2645
C	6.4417	1.6119	-1.2416
C	5.3188	3.4578	-2.2734
C	4.0393	3.9827	-2.9056
C	4.1308	5.3726	-3.0638
C	3.0504	6.0244	-3.6563
C	1.9480	5.2537	-4.0615
C	1.8420	3.8493	-3.9052
C	2.9448	3.1780	-3.3004
N	4.6309	-3.9284	-0.9091
N	-0.6048	-6.8402	-3.2104
N	4.8235	-0.2168	3.9049
N	-0.2669	0.8170	7.8051
N	-5.0906	-2.4182	-1.8375
N	5.1627	2.1317	-1.6974
H	-4.9941	4.0727	0.3935
H	-6.7382	4.1246	0.7448
H	-5.5794	3.5227	1.9152
H	-7.3302	-2.0230	1.1770
H	-5.6193	-2.3664	0.8187
H	-6.0394	-1.5033	2.2448
H	-6.9676	0.7196	-3.7329
H	-5.5142	-0.2784	-3.6066
H	-5.3550	1.4471	-3.7316
H	-6.4200	4.1707	-1.4362
H	-6.4058	3.2123	-2.8552
H	-4.9986	4.5331	-4.0448
H	-4.8610	5.7054	-2.7484
H	-2.3834	5.4177	-1.4989
H	0.0092	5.9384	-2.1814
H	-1.0590	5.2953	-6.3711
H	-3.4413	4.7833	-5.6856
H	2.6818	5.7606	-6.6518
H	3.0990	7.4415	-8.4186
H	1.7581	9.5403	-8.4931
H	-0.0037	9.9436	-6.7787
H	-0.4193	8.2705	-5.0038
H	-6.9940	0.3141	2.9539
H	-6.7847	2.0227	2.8393
H	-5.5985	2.2269	4.8194
H	-5.8655	0.5188	5.1293
H	-4.3857	2.7235	6.8386
H	-2.3347	2.5347	8.1436
H	-0.9906	-0.6430	5.6321
H	-3.0342	-0.4769	4.3023
H	6.7457	-3.7873	2.1160
H	5.5305	-3.0069	3.1105
H	5.0190	-3.8244	1.6881
H	5.5373	2.5872	0.9694
H	7.2343	2.3665	1.4655
H	5.9020	2.0130	2.5486
H	7.1822	-1.2635	-2.8730
H	5.7420	-0.2480	-3.0086
H	5.5586	-1.9636	-2.8213
H	6.5255	-4.2321	-0.0371
H	6.5596	-3.5396	-1.6038
H	5.0609	-4.8521	-2.7213
H	5.1018	-5.9223	-1.3261
H	3.8301	-6.1216	-4.0106
H	1.5803	-6.9012	-4.7033
H	-0.0459	-5.8161	-0.8115
H	2.2602	-4.9989	-0.0968
H	-2.1703	-7.3544	-5.3322
H	-2.4145	-9.5294	-6.4877
H	-1.1288	-11.5147	-5.7067
H	0.4041	-11.3057	-3.7531
H	0.6455	-9.1354	-2.5881
H	6.8165	0.3684	3.6335
H	6.6054	-1.3328	3.8264
H	5.2161	-1.2015	5.7055
H	5.5375	0.5251	5.7250
H	3.7687	-1.3822	7.5958
H	1.5808	-0.9344	8.6453
H	0.6935	1.9584	5.5700
H	2.8844	1.5092	4.5163
H	-2.1051	-0.2373	9.4549
H	-2.2139	0.0524	11.9119
H	1.4296	2.2357	9.3250
H	1.3209	2.5155	11.7835
H	-0.5024	1.4279	13.0875
H	-6.9147	-1.7039	-2.5232
H	-7.0214	-2.4213	-0.9727
H	-5.7168	-4.3178	-1.2694
H	-5.9245	-3.9584	-2.9791
H	-4.9052	-6.3368	-1.7667
H	-2.8932	-7.7197	-2.2140
H	-0.7574	-4.2172	-3.6789
H	-2.8152	-2.7897	-3.2125
H	7.0481	1.3741	-2.1156
H	7.0255	2.3723	-0.7260
H	6.0897	3.4308	-3.0468
H	5.6605	4.1431	-1.4953
H	4.9974	5.9356	-2.7497
H	3.0683	7.0954	-3.7982
H	0.9729	3.3013	-4.2389
H	2.9449	2.1061	-3.1602
H	-3.9511	2.9162	-2.4452
H	-4.3547	1.5794	2.8342
H	-4.4812	-2.2675	-1.0459
H	4.0990	-3.1481	-1.2736
H	4.1854	-0.9103	3.5383
H	4.5233	2.1471	-0.9149
