222

O	-2.7686	4.3840	-6.2598
H	-2.6845	4.6744	-7.2266
C	-1.3423	-1.1988	-5.7176
O	-3.7414	7.5388	0.5414
H	-3.5274	7.3432	1.5041
C	-1.3303	-0.7942	-7.0690
C	-0.1130	-0.6458	-7.7391
H	-0.1054	-0.3712	-8.7865
O	2.0017	4.8852	-6.3553
H	2.8394	5.0499	-5.8208
C	1.1019	-0.8300	-7.0842
O	2.2588	-0.6804	-7.8581
H	3.1111	-1.0236	-7.4444
C	1.1244	-1.1296	-5.6930
C	-0.1139	-1.3574	-5.0451
H	-0.1410	-1.6133	-4.0025
C	2.4598	-1.1387	-4.9310
H	3.0671	-1.9101	-5.4366
C	2.4184	-1.5431	-3.4327
H	1.6430	-0.9739	-2.8780
H	3.3896	-1.2397	-2.9802
O	-2.5271	-0.5138	-7.7376
H	-2.4038	-0.2235	-8.7010
C	3.1273	0.2382	-5.0094
C	4.4568	0.4333	-5.4759
C	5.0063	1.7174	-5.4778
H	6.0159	1.8532	-5.8491
C	4.3230	2.8033	-4.9174
O	4.9550	4.0470	-4.8077
H	5.8944	4.0655	-5.1878
C	3.0219	2.6229	-4.4083
C	2.4250	1.3503	-4.5003
H	1.4254	1.2091	-4.1066
C	2.3174	3.7287	-3.6256
H	2.9117	4.6644	-3.6631
O	2.1871	7.2645	3.1483
H	2.0803	8.0013	3.8371
C	0.9540	4.0362	-4.2680
O	-3.7923	6.1585	-4.0531
H	-4.1388	7.1006	-4.1940
C	0.8790	4.5114	-5.6086
C	-0.3565	4.6132	-6.2488
H	-0.3890	4.9501	-7.2775
O	-2.5425	6.8111	3.7948
H	-3.2681	6.1127	3.8492
C	-1.5456	4.2966	-5.5859
C	-1.5048	3.8952	-4.2393
C	-0.2599	3.7782	-3.5922
H	-0.2594	3.4582	-2.5637
C	-2.7845	3.5503	-3.4895
H	-3.6624	3.6338	-4.1676
C	-2.7910	2.0680	-3.0305
H	-3.7082	1.8771	-2.4320
H	-1.9113	1.8444	-2.3904
C	-2.7706	1.1031	-4.2261
H	-1.8584	1.2946	-4.8306
H	-3.6611	1.2858	-4.8670
C	-3.0233	4.5727	-2.3803
C	-3.5179	5.8478	-2.7163
C	-3.7339	6.7996	-1.7157
H	-4.1094	7.7805	-1.9803
C	-3.4824	6.5110	-0.3730
C	-2.9928	5.2263	-0.0017
C	-2.7441	4.2877	-1.0294
H	-2.3235	3.3301	-0.7855
C	-2.7537	4.8602	1.4720
H	-3.6473	5.2301	2.0050
C	-2.7485	3.3359	1.7650
H	-1.8833	2.8373	1.2813
H	-3.6814	2.8921	1.3513
C	-2.6678	3.0259	3.2676
H	-3.4926	3.5496	3.7989
H	-1.6988	3.3883	3.6700
C	-1.4632	5.5031	1.9750
C	-1.4276	6.4580	3.0256
C	-0.2216	7.0775	3.3495
H	-0.2143	7.8417	4.1172
C	0.9818	6.6693	2.7635
C	0.9869	5.6164	1.8249
C	-0.2466	5.1001	1.3880
H	-0.2797	4.3497	0.6155
O	5.2912	-0.6071	-5.8976
H	5.1005	-1.5083	-5.4875
C	2.3290	5.0144	1.4064
H	2.9400	5.8508	1.0045
C	2.2999	3.9213	0.3027
H	1.5581	3.1284	0.5372
H	3.2919	3.4138	0.3182
O	5.1178	2.2936	5.6090
H	6.0402	2.6697	5.7971
C	2.0894	4.4516	-1.1286
H	2.8251	5.2598	-1.3304
H	1.0702	4.8743	-1.2414
C	2.3148	3.3029	-2.1316
H	3.3218	2.8787	-1.9085
H	1.6002	2.4729	-1.9464
C	3.0057	4.4107	2.6350
C	4.2787	4.8479	3.0512
C	4.9436	4.1668	4.0794
H	5.9327	4.4911	4.3802
C	4.3775	3.0327	4.6795
C	3.0801	2.6136	4.3070
C	2.3987	3.3289	3.3050
H	1.4182	2.9933	2.9896
C	2.4946	1.3058	4.8330
H	3.1939	0.8630	5.5720
O	4.8901	5.9336	2.4161
H	5.8062	6.1619	2.7848
C	2.4787	0.2690	3.6833
H	3.4862	0.2986	3.2090
H	1.7620	0.5434	2.8821
O	2.4234	-5.8159	5.5067
H	3.2345	-5.7395	4.9160
C	1.1630	1.5198	5.5720
O	5.0077	-6.3892	-0.9505
H	5.9049	-6.8079	-0.7343
C	1.1586	1.9027	6.9420
C	-0.0397	1.9540	7.6499
H	-0.0162	2.2174	8.7005
O	-2.3592	-5.6029	5.6709
H	-2.2308	-6.2879	6.4073
C	-1.2622	1.6914	7.0296
O	-2.4478	1.7465	7.7716
H	-2.3128	1.9753	8.7501
C	-1.3039	1.3784	5.6568
C	-0.0857	1.2809	4.9445
H	-0.1103	1.0093	3.9045
C	-2.6690	1.1391	5.0051
H	-3.3828	1.8304	5.5021
C	-2.7845	1.5147	3.5077
H	-3.7880	1.1960	3.1476
H	-2.0450	0.9658	2.8901
O	2.3163	2.2308	7.6568
H	3.1263	2.4398	7.0985
C	-3.1418	-0.2918	5.2258
C	-4.2756	-0.5607	6.0233
C	-4.7994	-1.8592	6.0704
H	-5.6748	-2.0595	6.6749
C	-4.2431	-2.8901	5.3015
O	-4.8306	-4.1594	5.3043
H	-5.6474	-4.2352	5.9005
C	-3.1005	-2.6367	4.5101
C	-2.5284	-1.3505	4.5302
H	-1.6471	-1.1525	3.9334
C	-2.5539	-3.7000	3.5666
H	-3.2365	-4.5766	3.5768
O	-2.3960	-7.6821	-2.1998
H	-2.2700	-8.6452	-2.4900
C	-1.1970	-4.2052	4.0542
O	5.1895	-4.9248	3.6625
H	6.1041	-5.3606	3.6430
C	-1.1645	-5.1472	5.1023
C	0.0595	-5.6379	5.5629
H	0.0773	-6.3781	6.3542
O	2.4518	-7.6568	-2.0815
H	2.3495	-8.6320	-2.3372
C	1.2637	-5.2136	5.0087
C	1.2692	-4.2190	3.9917
C	0.0240	-3.7458	3.5151
H	0.0039	-3.0139	2.7293
C	2.5907	-3.6381	3.4741
H	3.2908	-3.6254	4.3347
C	2.5476	-2.1571	3.0202
H	1.8498	-1.9986	2.1727
H	3.5604	-1.9109	2.6280
C	2.2228	-1.1721	4.1555
H	2.8714	-1.3959	5.0307
H	1.1626	-1.2855	4.4654
C	3.1805	-4.4866	2.3507
C	4.4620	-5.0680	2.4758
C	5.0279	-5.7504	1.3902
H	5.9989	-6.2172	1.5005
C	4.3894	-5.7717	0.1428
C	3.1457	-5.1273	-0.0170
C	2.5200	-4.5595	1.1093
H	1.5551	-4.0831	0.9934
C	2.5660	-4.8914	-1.4063
H	3.2570	-5.3160	-2.1646
C	2.5580	-3.3746	-1.7150
H	3.5739	-2.9849	-1.4793
H	1.8593	-2.8204	-1.0558
C	2.2637	-3.0539	-3.1911
H	1.2388	-3.3865	-3.4569
H	2.9850	-3.6081	-3.8303
C	1.2320	-5.6130	-1.5780
C	1.2361	-6.9789	-1.9277
C	0.0274	-7.6532	-2.1295
H	0.0390	-8.6966	-2.4171
C	-1.1980	-6.9950	-1.9698
C	-1.2262	-5.6384	-1.5796
C	-0.0057	-4.9573	-1.3998
H	-0.0221	-3.9177	-1.1266
O	-4.8919	0.4680	6.7438
H	-5.6978	0.1700	7.2814
C	-2.5757	-4.9446	-1.4064
H	-3.2532	-5.7110	-0.9956
C	-2.6299	-3.8148	-0.3453
H	-3.6562	-3.3827	-0.3701
H	-1.9364	-2.9824	-0.5795
O	-4.2963	-3.2397	-6.6151
H	-3.6496	-2.6454	-7.1092
C	-2.3542	-4.3197	1.0790
H	-1.2996	-4.6618	1.1570
H	-3.0223	-5.1807	1.2977
C	-2.6154	-3.2019	2.1007
H	-1.9265	-2.3520	1.9195
H	-3.6432	-2.8108	1.9256
C	-3.0922	-4.4564	-2.7592
C	-4.1325	-5.1212	-3.4624
C	-4.4650	-4.7066	-4.7507
H	-5.2100	-5.2595	-5.3096
C	-3.8979	-3.5675	-5.3161
C	-2.9752	-2.7895	-4.5707
C	-2.5072	-3.3133	-3.3467
H	-1.7277	-2.7901	-2.8149
C	-2.6666	-1.3424	-4.9661
H	-3.4981	-1.0186	-5.6252
O	-4.8558	-6.2013	-2.9475
H	-5.0201	-6.1697	-1.9524
C	-2.7697	-0.3639	-3.7665
H	-1.9339	-0.5189	-3.0521
H	-3.7167	-0.5616	-3.2168
