348

N	5.1857	0.5641	0.8840
O	5.4207	1.1834	3.0441
C	4.5778	-2.3319	0.2487
H	4.9170	-2.2360	1.2729
C	4.9116	-1.3404	-0.6847
C	5.7590	-0.1651	-0.2709
H	6.7580	-0.5855	-0.0350
H	5.8966	0.5421	-1.1168
C	3.7496	0.9316	0.8589
H	3.4077	1.3616	1.8233
H	3.1271	0.0251	0.7090
C	5.9602	0.8661	1.9956
C	7.4447	0.8333	1.9745
C	8.1460	0.2798	3.0587
H	7.5981	-0.1607	3.8846
C	9.5503	0.2783	3.0730
C	10.2546	-0.2937	4.1448
H	9.7262	-0.7414	4.9776
C	11.6526	-0.2928	4.1453
H	12.1917	-0.7377	4.9718
C	12.3564	0.2801	3.0833
H	13.4385	0.2785	3.0904
C	11.6671	0.8552	2.0118
H	12.2302	1.2959	1.1964
C	10.2642	0.8563	1.9958
C	9.5617	1.4261	0.9255
H	10.0908	1.8793	0.0960
C	8.1649	1.4156	0.9171
H	7.6472	1.8658	0.0815
N	4.2209	3.1884	-0.0959
O	5.1230	3.0227	-2.1607
C	1.7136	4.8417	0.2783
H	2.1690	5.0627	-0.6793
C	2.4963	4.2961	1.3062
C	3.9658	4.0450	1.0866
H	4.4266	5.0472	0.9720
H	4.4258	3.5757	1.9816
C	3.4419	1.9373	-0.2564
H	3.6301	1.4459	-1.2337
H	2.3550	2.1618	-0.2497
C	5.1401	3.5621	-1.0657
C	6.1771	4.6007	-0.8333
C	6.4553	5.5459	-1.8359
H	5.8811	5.5378	-2.7554
C	7.4608	6.5078	-1.6479
C	7.7270	7.4669	-2.6383
H	7.1626	7.4786	-3.5627
C	8.7273	8.4228	-2.4379
H	8.9272	9.1624	-3.2025
C	9.4700	8.4268	-1.2547
H	10.2434	9.1691	-1.1055
C	9.2164	7.4761	-0.2614
H	9.8036	7.4938	0.6495
C	8.2119	6.5141	-0.4479
C	7.9457	5.5579	0.5412
H	8.5149	5.5428	1.4627
C	6.9383	4.6098	0.3491
H	6.7562	3.8800	1.1252
N	-4.3007	-3.0541	0.4091
O	-4.2373	-4.5129	-1.3149
C	-2.4962	-3.5249	2.7929
H	-2.5520	-4.4181	2.1827
C	-3.5215	-2.5710	2.7171
C	-4.7044	-2.8022	1.8119
H	-5.2461	-3.6683	2.2441
H	-5.4008	-1.9369	1.8412
C	-3.3183	-2.1452	-0.2286
H	-3.0021	-2.5025	-1.2308
H	-2.3865	-2.1088	0.3732
C	-4.7948	-4.1448	-0.2928
C	-5.9997	-4.8992	0.1371
C	-6.0051	-6.3033	0.0694
H	-5.1140	-6.8285	-0.2549
C	-7.1511	-7.0288	0.4327
C	-7.1532	-8.4322	0.3869
H	-6.2724	-8.9765	0.0692
C	-8.2986	-9.1441	0.7556
H	-8.2951	-10.2260	0.7220
C	-9.4476	-8.4644	1.1671
H	-10.3312	-9.0214	1.4500
C	-9.4592	-7.0675	1.2144
H	-10.3604	-6.5568	1.5358
C	-8.3149	-6.3407	0.8524
C	-8.3128	-4.9402	0.8995
H	-9.1962	-4.3964	1.2112
C	-7.1656	-4.2272	0.5431
H	-7.1917	-3.1471	0.5840
N	-5.1058	-0.6984	-1.1972
O	-6.3064	0.3069	0.4316
C	-3.7952	1.0151	-3.3199
H	-4.5339	1.5914	-2.7763
C	-3.8866	-0.3842	-3.3377
C	-5.0205	-1.0776	-2.6275
H	-5.9382	-0.7938	-3.1820
H	-4.9215	-2.1808	-2.7060
C	-3.8732	-0.7236	-0.3739
H	-4.0356	-0.3050	0.6412
H	-3.0956	-0.0780	-0.8324
C	-6.3054	-0.2832	-0.6371
C	-7.6221	-0.5348	-1.2782
C	-8.5964	0.4785	-1.2927
H	-8.3652	1.4514	-0.8743
C	-9.8600	0.2428	-1.8578
C	-10.8283	1.2591	-1.8933
H	-10.6164	2.2393	-1.4840
C	-12.0813	1.0142	-2.4629
H	-12.8238	1.8013	-2.4912
C	-12.3787	-0.2425	-2.9956
H	-13.3507	-0.4262	-3.4349
C	-11.4243	-1.2638	-2.9648
H	-11.6725	-2.2325	-3.3816
C	-10.1611	-1.0297	-2.4002
C	-9.1946	-2.0438	-2.3662
H	-9.4095	-3.0257	-2.7699
C	-7.9376	-1.7982	-1.8092
H	-7.2116	-2.5986	-1.7906
N	-0.2567	-2.3440	-4.7361
O	0.0608	-4.5546	-4.3935
C	-2.9447	-1.1288	-4.0624
H	-3.0204	-2.2092	-4.0979
C	-1.9038	-0.4867	-4.7464
C	-0.9127	-1.2924	-5.5474
H	-1.4906	-1.7245	-6.3889
H	-0.1342	-0.6361	-5.9903
C	0.3030	-1.9841	-3.4113
H	0.6569	-2.8733	-2.8471
H	-0.4857	-1.5320	-2.7746
C	-0.1986	-3.6577	-5.1805
C	-0.4302	-4.0385	-6.5971
C	-1.2011	-5.1750	-6.8974
H	-1.6580	-5.7413	-6.0939
C	-1.3943	-5.5720	-8.2303
C	-2.1813	-6.6942	-8.5353
H	-2.6497	-7.2717	-7.7477
C	-2.3706	-7.0771	-9.8665
H	-2.9807	-7.9408	-10.0975
C	-1.7753	-6.3493	-10.8996
H	-1.9249	-6.6516	-11.9278
C	-0.9876	-5.2310	-10.6095
H	-0.5325	-4.6794	-11.4240
C	-0.7935	-4.8332	-9.2779
C	-0.0090	-3.7125	-8.9741
H	0.4644	-3.1393	-9.7619
C	0.1716	-3.3210	-7.6454
H	0.7851	-2.4553	-7.4379
N	2.5730	-1.5534	-4.3540
O	2.5355	0.1860	-5.7955
C	4.4948	-1.4776	-2.0172
H	4.7653	-0.7268	-2.7496
C	3.7281	-2.5828	-2.4126
C	3.3077	-2.7374	-3.8514
H	4.2447	-2.9096	-4.4193
H	2.6766	-3.6421	-3.9852
C	1.4679	-0.9956	-3.5383
H	1.0764	-0.0436	-3.9534
H	1.8357	-0.7394	-2.5230
C	2.9322	-0.9419	-5.5472
C	3.7844	-1.6054	-6.5664
C	4.7968	-0.8753	-7.2138
H	4.9772	0.1564	-6.9318
C	5.5832	-1.4762	-8.2084
C	6.6092	-0.7562	-8.8413
H	6.8085	0.2741	-8.5729
C	7.3890	-1.3670	-9.8278
H	8.1811	-0.8094	-10.3109
C	7.1499	-2.6941	-10.1925
H	7.7564	-3.1607	-10.9576
C	6.1301	-3.4218	-9.5716
H	5.9582	-4.4500	-9.8685
C	5.3431	-2.8220	-8.5765
C	4.3201	-3.5414	-7.9443
H	4.1172	-4.5696	-8.2178
C	3.5478	-2.9377	-6.9495
H	2.7616	-3.5125	-6.4809
N	-2.4677	1.2572	4.5078
O	-3.7038	3.1013	4.0883
C	-3.4625	-1.4271	3.5257
H	-4.2599	-0.6951	3.4880
C	-2.3759	-1.2216	4.3883
C	-2.3334	-0.0039	5.2750
H	-3.1636	-0.1322	5.9990
H	-1.3915	0.0264	5.8629
C	-1.6309	1.4544	3.3000
H	-1.9048	2.3745	2.7430
H	-1.7941	0.6226	2.5836
C	-3.3888	2.2267	4.8800
C	-4.0184	2.2639	6.2244
C	-5.3904	2.5456	6.3452
H	-5.9891	2.6908	5.4532
C	-5.9916	2.6256	7.6116
C	-7.3660	2.8856	7.7354
H	-7.9828	3.0301	6.8570
C	-7.9545	2.9582	9.0015
H	-9.0142	3.1563	9.0935
C	-7.1793	2.7771	10.1494
H	-7.6409	2.8357	11.1264
C	-5.8094	2.5196	10.0401
H	-5.2236	2.3832	10.9418
C	-5.2071	2.4395	8.7752
C	-3.8358	2.1788	8.6520
H	-3.2183	2.0407	9.5312
C	-3.2476	2.0930	7.3881
H	-2.1871	1.8960	7.3204
N	0.1514	2.6402	4.5822
O	1.1075	1.2673	6.1007
C	1.9123	4.0335	2.5540
H	2.5151	3.6311	3.3595
C	0.5508	4.2907	2.7706
C	-0.0613	4.0334	4.1229
H	0.4095	4.7663	4.8092
H	-1.1505	4.2509	4.1131
C	-0.1399	1.5254	3.6495
H	0.1719	0.5415	4.0580
H	0.4442	1.6489	2.7140
C	0.6552	2.3730	5.8477
C	0.6642	3.3801	6.9391
C	1.7939	3.5040	7.7650
H	2.6699	2.8942	7.5725
C	1.8028	4.4227	8.8272
C	2.9382	4.5648	9.6411
H	3.8241	3.9675	9.4637
C	2.9361	5.4859	10.6928
H	3.8146	5.5947	11.3159
C	1.8048	6.2663	10.9427
H	1.8094	6.9767	11.7590
C	0.6673	6.1324	10.1414
H	-0.2020	6.7462	10.3507
C	0.6576	5.2158	9.0792
C	-0.4752	5.0752	8.2664
H	-1.3631	5.6683	8.4486
C	-0.4712	4.1640	7.2076
H	-1.3596	4.0718	6.5984
N	-1.7012	4.9277	-0.9025
O	-3.9596	4.8560	-0.8918
C	-0.2227	4.8362	1.7362
H	-1.2703	5.0564	1.9012
C	0.3506	5.1022	0.4842
C	-0.4803	5.7158	-0.6141
H	-0.7255	6.7392	-0.2661
H	0.1134	5.8228	-1.5469
C	-1.5825	3.4614	-1.0861
H	-2.5726	2.9654	-1.1749
H	-1.1072	3.0030	-0.1941
C	-2.9476	5.5359	-0.9601
C	-3.1204	7.0029	-1.1135
C	-4.0971	7.6741	-0.3583
H	-4.6881	7.1223	0.3646
C	-4.3010	9.0531	-0.5211
C	-5.2609	9.7305	0.2480
H	-5.8594	9.1988	0.9783
C	-5.4518	11.1051	0.0793
H	-6.1905	11.6242	0.6765
C	-4.6929	11.8114	-0.8570
H	-4.8464	12.8751	-0.9834
C	-3.7352	11.1486	-1.6307
H	-3.1564	11.7118	-2.3527
C	-3.5304	9.7699	-1.4679
C	-2.5714	9.0945	-2.2347
H	-1.9775	9.6250	-2.9690
C	-2.3697	7.7237	-2.0593
H	-1.6276	7.2254	-2.6668
N	-1.3544	3.6696	-3.5623
O	0.5346	4.7806	-4.1127
C	-1.8210	0.9140	-4.7224
H	-1.0314	1.4200	-5.2645
C	-2.7570	1.6687	-4.0005
C	-2.6790	3.1736	-4.0023
H	-2.9074	3.4828	-5.0435
H	-3.4668	3.6124	-3.3530
C	-0.7536	3.1114	-2.3273
H	0.2867	3.4666	-2.1665
H	-0.6736	2.0074	-2.4080
C	-0.6585	4.6103	-4.3090
C	-1.3045	5.4471	-5.3521
C	-0.6462	5.6722	-6.5727
H	0.3096	5.1973	-6.7625
C	-1.2248	6.4945	-7.5532
C	-0.5801	6.7041	-8.7829
H	0.3740	6.2355	-8.9937
C	-1.1684	7.5216	-9.7526
H	-0.6697	7.6779	-10.7006
C	-2.3971	8.1374	-9.5028
H	-2.8474	8.7694	-10.2573
C	-3.0486	7.9386	-8.2817
H	-4.0003	8.4248	-8.1047
C	-2.4713	7.1167	-7.3017
C	-3.1156	6.9067	-6.0751
H	-4.0663	7.3801	-5.8621
C	-2.5364	6.0804	-5.1095
H	-3.0511	5.9389	-4.1698
N	1.0303	-3.7989	3.5352
O	3.0623	-3.3462	4.4131
C	-1.3562	-2.1814	4.4562
H	-0.5233	-2.0402	5.1342
C	-1.4054	-3.3292	3.6518
C	-0.3194	-4.3697	3.7511
H	-0.4205	-4.8108	4.7638
H	-0.4892	-5.1905	3.0216
C	1.2555	-2.9112	2.3694
H	2.2654	-2.4485	2.3803
H	0.5458	-2.0584	2.3973
C	2.0642	-4.0495	4.4268
C	2.0249	-5.1597	5.4124
C	2.4740	-4.9426	6.7267
H	2.8053	-3.9542	7.0243
C	2.4814	-5.9932	7.6585
C	2.9100	-5.7747	8.9781
H	3.2406	-4.7945	9.2969
C	2.9093	-6.8271	9.8985
H	3.2369	-6.6543	10.9147
C	2.4879	-8.1011	9.5104
H	2.4909	-8.9116	10.2274
C	2.0615	-8.3323	8.1990
H	1.7393	-9.3277	7.9157
C	2.0528	-7.2836	7.2666
C	1.6247	-7.5015	5.9502
H	1.2994	-8.4839	5.6303
C	1.6122	-6.4491	5.0321
H	1.2824	-6.6445	4.0216
N	2.0253	-4.7984	0.9296
O	0.3629	-6.2908	0.5905
C	3.3999	-3.5687	-1.4700
H	2.8251	-4.4361	-1.7709
C	3.8119	-3.4417	-0.1355
C	3.4794	-4.5184	0.8650
H	4.0546	-5.4112	0.5450
H	3.8426	-4.2447	1.8783
C	1.0806	-3.6616	1.0441
H	0.0216	-3.9834	0.9603
H	1.2350	-2.9520	0.2048
C	1.5419	-6.0966	0.8423
C	2.3999	-7.2903	1.0531
C	2.2689	-8.4024	0.2048
H	1.5730	-8.3650	-0.6256
C	3.0435	-9.5548	0.4157
C	2.9311	-10.6599	-0.4432
H	2.2446	-10.6418	-1.2808
C	3.7109	-11.7996	-0.2252
H	3.6233	-12.6478	-0.8907
C	4.6021	-11.8476	0.8494
H	5.2020	-12.7332	1.0132
C	4.7214	-10.7551	1.7133
H	5.4181	-10.8106	2.5426
C	3.9489	-9.6029	1.5030
C	4.0624	-8.4998	2.3596
H	4.7445	-8.5212	3.2008
C	3.2939	-7.3550	2.1367
H	3.3963	-6.5198	2.8149
