150
00000001
N      -0.220000   -3.728000   -4.547000
N      -0.460000   -5.513000   -2.005000
N      -3.466000   -3.403000    3.321000
N       2.982000   -3.910000    3.232000
C       0.322000   -1.371000   -4.532000
C      -1.021000   -0.957000   -4.535000
H      -1.815000   -1.694000   -4.509000
C       0.683000   -2.800000   -4.446000
H       1.718000   -3.068000   -4.264000
C      -0.767000   -4.677000    0.244000
C       0.607000   -4.676000    0.542000
H       1.325000   -4.970000   -0.215000
C       1.065000   -4.260000    1.800000
C       0.135000   -3.851000    2.771000
H       0.479000   -3.505000    3.739000
C      -1.239000   -3.846000    2.488000
C      -1.683000   -4.266000    1.223000
H      -2.741000   -4.245000    0.986000
C      -1.259000   -5.027000   -1.103000
H      -2.300000   -4.842000   -1.344000
C       2.517000   -4.187000    2.052000
H       3.199000   -4.337000    1.222000
C      -2.182000   -3.328000    3.498000
H      -1.785000   -2.848000    4.387000
C       0.080000   -5.148000   -4.368000
H       1.130000   -5.304000   -4.022000
C      -0.884000   -5.779000   -3.379000
H      -1.918000   -5.402000   -3.568000
C      -0.837000   -7.264000   -3.706000
H      -1.802000   -7.757000   -3.458000
H      -0.018000   -7.760000   -3.138000
C      -0.540000   -7.343000   -5.206000
H      -1.443000   -7.676000   -5.763000
H       0.285000   -8.064000   -5.396000
C      -0.134000   -5.936000   -5.652000
H       0.793000   -5.958000   -6.265000
H      -0.956000   -5.484000   -6.251000
C       4.408000   -3.730000    3.500000
H       5.006000   -3.740000    2.558000
C       4.947000   -4.804000    4.433000
H       5.306000   -5.686000    3.860000
H       4.156000   -5.130000    5.146000
C       6.088000   -4.139000    5.206000
H       7.070000   -4.535000    4.865000
H       5.981000   -4.338000    6.295000
C      -4.431000   -2.814000    4.247000
H      -3.924000   -2.205000    5.033000
C      -5.283000   -3.876000    4.926000
H      -4.805000   -4.231000    5.864000
H      -5.436000   -4.743000    4.245000
N       3.339000    1.674000   -4.547000
N       5.005000    2.358000   -2.005000
N       4.680000   -1.300000    3.321000
N       1.895000    4.538000    3.231000
C       1.027000    0.964000   -4.532000
C       1.339000   -0.406000   -4.535000
H       2.375000   -0.725000   -4.509000
C       2.084000    1.991000   -4.446000
H       1.798000    3.021000   -4.264000
C       4.434000    1.675000    0.244000
C       3.746000    2.863000    0.541000
H       3.641000    3.632000   -0.215000
C       3.157000    3.052000    1.800000
C       3.268000    2.042000    2.771000
H       2.796000    2.168000    3.739000
C       3.951000    0.850000    2.488000
C       4.536000    0.675000    1.223000
H       5.046000   -0.251000    0.986000
C       4.983000    1.424000   -1.103000
H       5.343000    0.429000   -1.344000
C       2.367000    4.274000    2.051000
H       2.157000    4.940000    1.221000
C       3.973000   -0.226000    3.498000
H       3.359000   -0.121000    4.387000
C       4.419000    2.643000   -4.369000
H       4.028000    3.630000   -4.023000
C       5.447000    2.124000   -3.379000
H       5.637000    1.040000   -3.568000
C       6.709000    2.907000   -3.707000
H       7.619000    2.317000   -3.458000
H       6.730000    3.864000   -3.139000
C       6.629000    3.203000   -5.206000
H       7.369000    2.588000   -5.764000
H       6.841000    4.278000   -5.396000
C       5.208000    2.851000   -5.652000
H       4.763000    3.665000   -6.266000
H       5.228000    1.913000   -6.251000
C       1.026000    5.683000    3.500000
H       0.736000    6.205000    2.557000
C       1.687000    6.686000    4.433000
H       2.271000    7.438000    3.859000
H       2.365000    6.165000    5.145000
C       0.540000    7.343000    5.206000
H       0.392000    8.391000    4.865000
H       0.766000    7.349000    6.295000
C       4.653000   -2.430000    4.248000
H       3.871000   -2.295000    5.033000
C       5.998000   -2.637000    4.926000
H       6.066000   -2.045000    5.865000
H       6.826000   -2.336000    4.245000
N      -3.119000    2.054000   -4.547000
N      -4.544000    3.155000   -2.005000
N      -1.215000    4.703000    3.320000
N      -4.877000   -0.628000    3.231000
C      -1.348000    0.407000   -4.532000
C      -0.318000    1.363000   -4.535000
H      -0.559000    2.419000   -4.509000
C      -2.766000    0.809000   -4.446000
H      -3.515000    0.046000   -4.264000
C      -3.667000    3.003000    0.243000
C      -4.353000    1.813000    0.541000
H      -4.966000    1.337000   -0.216000
C      -4.222000    1.208000    1.800000
C      -3.402000    1.809000    2.771000
H      -3.276000    1.338000    3.739000
C      -2.712000    2.996000    2.488000
C      -2.853000    3.591000    1.222000
H      -2.306000    4.496000    0.985000
C      -3.724000    3.604000   -1.104000
H      -3.043000    4.413000   -1.344000
C      -4.885000   -0.087000    2.051000
H      -5.356000   -0.602000    1.221000
C      -1.791000    3.554000    3.498000
H      -1.575000    2.970000    4.386000
C      -4.498000    2.505000   -4.369000
H      -5.158000    1.673000   -4.023000
C      -4.563000    3.655000   -3.379000
H      -3.719000    4.362000   -3.568000
C      -5.872000    4.357000   -3.707000
H      -5.816000    5.439000   -3.459000
H      -6.711000    3.896000   -3.139000
C      -6.088000    4.139000   -5.206000
H      -5.926000    5.087000   -5.764000
H      -7.125000    3.785000   -5.397000
C      -5.073000    3.084000   -5.653000
H      -5.555000    2.292000   -6.266000
H      -4.271000    3.570000   -6.252000
C      -5.434000   -1.953000    3.500000
H      -5.742000   -2.465000    2.557000
C      -6.634000   -1.882000    4.433000
H      -7.577000   -1.752000    3.859000
H      -6.521000   -1.034000    5.145000
C      -6.629000   -3.203000    5.206000
H      -7.463000   -3.856000    4.865000
H      -6.748000   -3.010000    6.295000
C      -0.222000    5.245000    4.247000
H       0.052000    4.500000    5.033000
C      -0.715000    6.514000    4.925000
H      -1.262000    6.277000    5.864000
H      -1.390000    7.080000    4.244000
