120
00000001
C       3.104000    2.770000    2.191000
H       3.029000    3.714000    2.402000
H       3.955000    2.461000    2.537000
C       3.111000    2.613000    0.682000
C       2.384000    3.538000   -0.075000
H       1.911000    4.205000    0.370000
C       2.340000    3.505000   -1.460000
C       3.018000    2.478000   -2.132000
C       3.745000    1.569000   -1.382000
H       4.200000    0.891000   -1.828000
C       3.829000    1.623000    0.015000
C       4.730000    0.608000    0.711000
H       5.497000    0.432000    0.141000
H       5.059000    1.000000    1.534000
C       4.057000   -0.711000    1.036000
C       4.035000   -1.692000    0.044000
H       4.442000   -1.515000   -0.774000
C       3.429000   -2.912000    0.237000
C       2.796000   -3.183000    1.462000
C       2.837000   -2.231000    2.453000
H       2.439000   -2.415000    3.271000
C       3.464000   -0.987000    2.263000
C       3.461000   -0.026000    3.438000
H       4.211000    0.583000    3.351000
H       3.580000   -0.528000    4.258000
C       2.170000    0.784000    3.533000
C       1.097000    0.227000    4.243000
H       1.214000   -0.593000    4.666000
C      -0.125000    0.853000    4.337000
C      -0.320000    2.084000    3.706000
C       0.737000    2.645000    3.007000
H       0.610000    3.463000    2.584000
C       1.988000    2.024000    2.916000
C      -2.871000   -2.824000   -2.567000
H      -2.663000   -3.705000   -2.914000
H      -3.788000   -2.623000   -2.812000
C      -1.962000   -1.816000   -3.243000
C      -0.662000   -2.213000   -3.572000
H      -0.414000   -3.098000   -3.437000
C       0.262000   -1.332000   -4.089000
C      -0.100000    0.002000   -4.272000
C      -1.411000    0.383000   -4.043000
H      -1.666000    1.259000   -4.229000
C      -2.358000   -0.511000   -3.543000
C      -3.773000    0.003000   -3.305000
H      -4.029000    0.598000   -4.026000
H      -4.392000   -0.743000   -3.294000
C      -3.845000    0.743000   -1.988000
C      -3.427000    2.072000   -2.017000
H      -3.253000    2.470000   -2.840000
C      -3.261000    2.817000   -0.869000
C      -3.475000    2.199000    0.366000
C      -3.958000    0.903000    0.393000
H      -4.146000    0.513000    1.215000
C      -4.175000    0.151000   -0.773000
C      -4.747000   -1.255000   -0.664000
H      -5.490000   -1.245000   -0.041000
H      -5.090000   -1.523000   -1.531000
C      -3.728000   -2.283000   -0.197000
C      -3.721000   -2.607000    1.160000
H      -4.377000   -2.253000    1.716000
C      -2.757000   -3.451000    1.700000
C      -1.698000   -3.862000    0.905000
C      -1.742000   -3.595000   -0.452000
H      -1.053000   -3.909000   -0.990000
C      -2.778000   -2.872000   -1.045000
C       2.154000    2.833000   -4.418000
H       2.449000    2.663000   -5.326000
H       2.074000    3.793000   -4.307000
C       0.807000    2.207000   -4.219000
H       0.573000    2.206000   -3.278000
H       0.131000    2.705000   -4.705000
C       1.369000   -4.679000    2.672000
H       1.792000   -4.364000    3.487000
H       1.227000   -5.634000    2.762000
C       0.045000   -4.002000    2.516000
H      -0.476000   -4.100000    3.328000
H       0.172000   -3.056000    2.347000
C      -1.876000    3.859000    3.185000
H      -1.147000    4.490000    3.296000
H      -2.671000    4.256000    3.576000
C      -2.112000    3.650000    1.724000
H      -2.227000    4.504000    1.278000
H      -1.352000    3.197000    1.326000
C       0.970000    5.461000   -1.549000
H       0.293000    5.068000   -0.995000
H       0.557000    6.040000   -2.195000
H       1.575000    5.970000   -1.005000
C       4.468000   -4.045000   -1.578000
H       5.171000   -3.444000   -1.313000
H       4.176000   -3.823000   -2.466000
H       4.797000   -4.946000   -1.565000
C      -2.137000   -0.360000    4.326000
H      -2.481000    0.246000    3.666000
H      -2.853000   -0.650000    4.897000
H      -1.748000   -1.121000    3.890000
C       2.523000   -1.523000   -3.512000
H       2.593000   -0.577000   -3.365000
H       3.363000   -1.861000   -3.832000
H       2.296000   -1.959000   -2.686000
C      -2.439000    4.686000   -2.107000
H      -1.713000    4.147000   -2.429000
H      -2.131000    5.583000   -1.964000
H      -3.148000    4.690000   -2.754000
C      -4.004000   -3.745000    3.702000
H      -4.123000   -2.815000    3.911000
H      -3.974000   -4.254000    4.515000
H      -4.738000   -4.048000    3.160000
O       3.151000    2.337000   -3.502000
O       0.881000    0.862000   -4.713000
O       2.247000   -4.439000    1.568000
O      -0.650000   -4.617000    1.403000
O      -1.559000    2.662000    3.903000
O      -3.304000    2.846000    1.575000
O       1.685000    4.438000   -2.221000
O       3.385000   -3.925000   -0.680000
O      -1.140000    0.302000    5.109000
O       1.514000   -1.780000   -4.473000
O      -2.920000    4.150000   -0.881000
O      -2.783000   -3.920000    2.987000
