244
00000001
O       6.708000   -2.860000   -2.413000
H       7.053000   -1.913000   -2.344000
C       7.401000   -3.676000   -3.316000
C       8.199000   -3.135000   -4.360000
C       8.976000   -3.996000   -5.149000
H       9.597000   -3.590000   -5.939000
C       8.937000   -5.380000   -4.956000
C       8.109000   -5.915000   -3.964000
H       8.071000   -6.990000   -3.833000
C       7.335000   -5.076000   -3.142000
C       9.767000   -6.274000   -5.830000
H       9.451000   -6.159000   -6.888000
H       9.658000   -7.342000   -5.544000
H      10.838000   -5.995000   -5.738000
C       8.234000   -1.695000   -4.697000
H       9.148000   -1.300000   -5.121000
C       6.449000   -5.657000   -2.105000
H       5.852000   -4.990000   -1.500000
N       7.180000   -0.945000   -4.573000
N       6.372000   -6.945000   -1.942000
O      -1.598000    4.398000   -5.896000
H      -0.850000    4.933000   -5.476000
C      -1.974000    4.829000   -7.175000
C      -3.298000    4.583000   -7.602000
C      -3.739000    5.109000   -8.829000
H      -4.755000    4.935000   -9.162000
C      -2.884000    5.876000   -9.628000
C      -1.563000    6.085000   -9.222000
H      -0.898000    6.650000   -9.866000
C      -1.081000    5.542000   -8.021000
C      -3.364000    6.460000  -10.925000
H      -4.424000    6.195000  -11.126000
H      -2.742000    6.076000  -11.760000
H      -3.281000    7.566000  -10.887000
C      -4.222000    3.796000   -6.752000
H      -3.853000    3.393000   -5.821000
C       0.365000    5.696000   -7.741000
H       0.893000    6.512000   -8.219000
N      -5.457000    3.604000   -7.114000
N       1.011000    4.831000   -7.017000
O      -3.823000   -6.186000   -2.002000
H      -4.518000   -5.535000   -1.666000
C      -4.093000   -6.764000   -3.250000
C      -3.418000   -7.958000   -3.605000
C      -3.743000   -8.608000   -4.805000
H      -3.234000   -9.526000   -5.075000
C      -4.715000   -8.089000   -5.664000
C      -5.360000   -6.895000   -5.332000
H      -6.087000   -6.489000   -6.026000
C      -5.052000   -6.209000   -4.143000
C      -5.059000   -8.788000   -6.947000
H      -4.443000   -9.701000   -7.094000
H      -4.882000   -8.106000   -7.805000
H      -6.129000   -9.085000   -6.934000
C      -2.378000   -8.585000   -2.753000
H      -2.013000   -9.562000   -3.042000
C      -5.686000   -4.890000   -3.895000
H      -5.219000   -4.199000   -3.211000
N      -1.833000   -7.959000   -1.752000
N      -6.779000   -4.560000   -4.517000
O       0.758000   -3.209000    6.905000
H       0.039000   -2.579000    7.231000
C       1.570000   -3.749000    7.911000
C       1.694000   -3.138000    9.190000
C       2.409000   -3.797000   10.201000
H       2.496000   -3.341000   11.181000
C       3.046000   -5.017000    9.952000
C       2.963000   -5.591000    8.682000
H       3.471000   -6.531000    8.500000
C       2.229000   -4.971000    7.655000
C       3.828000   -5.709000   11.030000
H       4.881000   -5.837000   10.704000
H       3.385000   -6.708000   11.227000
H       3.822000   -5.129000   11.978000
C       1.147000   -1.802000    9.514000
H       0.888000   -1.595000   10.544000
C       2.126000   -5.616000    6.323000
H       1.657000   -5.077000    5.512000
N       1.071000   -0.872000    8.610000
N       2.549000   -6.832000    6.149000
O      -6.652000    2.952000    2.650000
H      -5.783000    3.433000    2.836000
C      -7.622000    3.047000    3.657000
C      -7.284000    3.440000    4.981000
C      -8.308000    3.609000    5.931000
H      -8.065000    3.907000    6.944000
C      -9.643000    3.357000    5.601000
C      -9.965000    2.925000    4.314000
H     -11.002000    2.718000    4.073000
C      -8.974000    2.765000    3.334000
C     -10.731000    3.524000    6.623000
H     -11.251000    2.555000    6.776000
H     -11.465000    4.277000    6.266000
H     -10.328000    3.864000    7.600000
C      -5.873000    3.587000    5.415000
H      -5.104000    3.069000    4.866000
C      -9.407000    2.317000    1.987000
H     -10.456000    2.098000    1.841000
N      -5.584000    4.255000    6.492000
N      -8.561000    2.155000    1.015000
O       3.549000    6.722000    2.191000
H       2.767000    7.063000    2.733000
C       4.807000    7.125000    2.658000
C       5.894000    7.112000    1.757000
C       7.144000    7.610000    2.169000
H       7.984000    7.604000    1.485000
C       7.321000    8.116000    3.461000
C       6.251000    8.104000    4.360000
H       6.406000    8.465000    5.371000
C       5.003000    7.586000    3.988000
C       8.656000    8.642000    3.904000
H       9.409000    8.586000    3.090000
H       9.025000    8.044000    4.764000
H       8.554000    9.702000    4.217000
C       5.717000    6.584000    0.383000
H       4.770000    6.141000    0.108000
C       3.974000    7.472000    5.044000
H       3.997000    8.189000    5.852000
N       6.673000    6.680000   -0.493000
N       3.162000    6.459000    5.069000
C       4.284000    4.181000   -5.366000
C       2.910000    4.211000   -5.614000
H       2.222000    3.763000   -4.908000
C       2.427000    4.838000   -6.776000
C       3.342000    5.404000   -7.697000
H       2.998000    5.850000   -8.619000
C       4.721000    5.366000   -7.454000
H       5.413000    5.798000   -8.166000
C       5.191000    4.759000   -6.290000
C       6.659000    4.644000   -5.885000
H       7.370000    5.094000   -6.612000
C       6.716000    5.261000   -4.490000
C       7.589000    6.271000   -4.092000
H       8.295000    6.697000   -4.793000
C       7.551000    6.723000   -2.767000
H       8.235000    7.503000   -2.456000
C       6.638000    6.184000   -1.841000
C       5.766000    5.146000   -2.242000
H       5.088000    4.675000   -1.544000
C       5.807000    4.691000   -3.562000
C       4.952000    3.561000   -4.138000
H       4.241000    3.111000   -3.411000
C       5.970000    2.576000   -4.714000
C       6.074000    1.224000   -4.375000
H       5.389000    0.791000   -3.657000
C       7.089000    0.440000   -4.952000
C       7.966000    1.021000   -5.902000
H       8.722000    0.432000   -6.400000
C       7.861000    2.375000   -6.241000
H       8.544000    2.811000   -6.959000
C       6.872000    3.152000   -5.643000
C      -8.078000    0.914000   -2.459000
C      -7.818000    1.310000   -1.146000
H      -6.806000    1.275000   -0.761000
C      -8.873000    1.746000   -0.328000
C     -10.187000    1.805000   -0.856000
H     -11.014000    2.177000   -0.268000
C     -10.449000    1.411000   -2.175000
H     -11.455000    1.462000   -2.570000
C      -9.398000    0.964000   -2.974000
C      -9.522000    0.514000   -4.428000
H     -10.556000    0.554000   -4.833000
C      -8.520000    1.388000   -5.181000
C      -8.810000    2.172000   -6.295000
H      -9.816000    2.214000   -6.692000
C      -7.780000    2.899000   -6.905000
H      -8.005000    3.502000   -7.776000
C      -6.462000    2.853000   -6.410000
C      -6.171000    2.056000   -5.278000
H      -5.173000    1.969000   -4.878000
C      -7.199000    1.334000   -4.668000
C      -7.034000    0.417000   -3.457000
H      -6.000000    0.376000   -3.052000
C      -7.574000   -0.931000   -3.933000
C      -6.861000   -2.132000   -3.928000
H      -5.844000   -2.130000   -3.565000
C      -7.470000   -3.301000   -4.438000
C      -8.778000   -3.233000   -4.955000
H      -9.241000   -4.122000   -5.366000
C      -9.495000   -2.029000   -4.959000
H     -10.497000   -1.991000   -5.367000
C      -8.893000   -0.879000   -4.449000
C       3.547000   -7.800000    0.386000
C       4.416000   -7.027000   -0.385000
H       4.205000   -5.975000   -0.499000
C       5.502000   -7.651000   -1.042000
C       5.697000   -9.039000   -0.893000
H       6.520000   -9.523000   -1.404000
C       4.824000   -9.815000   -0.121000
H       4.973000  -10.884000   -0.037000
C       3.742000   -9.199000    0.506000
C       2.646000   -9.921000    1.287000
H       2.798000  -11.019000    1.374000
C       2.589000   -9.187000    2.623000
C       2.750000   -9.783000    3.872000
H       2.907000  -10.850000    3.957000
C       2.722000   -8.980000    5.018000
H       2.858000   -9.442000    5.988000
C       2.525000   -7.589000    4.928000
C       2.368000   -6.986000    3.659000
H       2.258000   -5.917000    3.548000
C       2.397000   -7.787000    2.513000
C       2.283000   -7.283000    1.073000
H       2.134000   -6.185000    0.983000
C       1.165000   -8.120000    0.453000
C       0.089000   -7.614000   -0.281000
H      -0.028000   -6.545000   -0.405000
C      -0.794000   -8.503000   -0.918000
C      -0.626000   -9.899000   -0.745000
H      -1.321000  -10.601000   -1.184000
C       0.451000  -10.407000   -0.008000
H       0.592000  -11.476000    0.085000
C       1.357000   -9.521000    0.572000
C      -0.113000    2.569000    7.860000
C       0.261000    1.236000    7.702000
H       0.253000    0.783000    6.718000
C       0.652000    0.486000    8.823000
C       0.678000    1.100000   10.100000
H       1.013000    0.561000   10.975000
C       0.306000    2.442000   10.259000
H       0.339000    2.906000   11.237000
C      -0.085000    3.178000    9.141000
C      -0.483000    4.654000    9.144000
H      -0.457000    5.131000   10.148000
C      -1.855000    4.674000    8.475000
C      -3.019000    5.191000    9.040000
H      -2.995000    5.663000   10.013000
C      -4.228000    5.065000    8.345000
H      -5.136000    5.447000    8.797000
C      -4.288000    4.421000    7.094000
C      -3.097000    3.930000    6.507000
H      -3.091000    3.439000    5.546000
C      -1.891000    4.057000    7.199000
C      -0.544000    3.504000    6.733000
H      -0.569000    3.024000    5.730000
C       0.422000    4.682000    6.842000
C       1.298000    5.099000    5.839000
H       1.297000    4.600000    4.878000
C       2.209000    6.137000    6.097000
C       2.216000    6.759000    7.371000
H       2.921000    7.539000    7.616000
C       1.337000    6.339000    8.379000
H       1.372000    6.798000    9.358000
C       0.451000    5.295000    8.119000
