648
00000001
C      16.341000   -1.811000   -2.667000
C      17.423000   -2.378000   -3.370000
C      18.729000   -2.036000   -2.980000
H      19.581000   -2.459000   -3.498000
C      18.960000   -1.157000   -1.916000
H      19.983000   -0.919000   -1.653000
C      17.894000   -0.585000   -1.201000
C      16.577000   -0.923000   -1.573000
C      14.852000   -2.060000   -2.955000
H      14.632000   -2.737000   -3.806000
C      17.222000   -3.342000   -4.515000
H      18.152000   -3.424000   -5.119000
H      16.435000   -2.967000   -5.203000
C      16.865000   -4.736000   -4.004000
H      17.688000   -5.133000   -3.372000
H      16.718000   -5.420000   -4.865000
H      15.930000   -4.715000   -3.406000
C      18.192000    0.365000   -0.066000
H      19.247000    0.253000    0.267000
H      17.560000    0.124000    0.815000
C      17.981000    1.816000   -0.492000
H      16.945000    1.981000   -0.853000
H      18.692000    2.082000   -1.303000
H      18.163000    2.487000    0.374000
C      15.294000   -0.415000   -0.897000
H      15.442000    0.269000   -0.037000
C       9.782000   13.513000   -1.199000
C      10.853000   14.314000   -0.753000
C      11.101000   15.530000   -1.412000
H      11.913000   16.169000   -1.089000
C      10.300000   15.951000   -2.480000
H      10.518000   16.903000   -2.948000
C       9.221000   15.172000   -2.930000
C       8.965000   13.943000   -2.289000
C       9.371000   12.154000   -0.613000
H       9.985000   11.788000    0.235000
C      11.724000   13.915000    0.414000
H      12.677000   14.488000    0.399000
H      12.003000   12.843000    0.342000
C      11.020000   14.197000    1.739000
H      10.063000   13.641000    1.808000
H      10.813000   15.285000    1.836000
H      11.672000   13.884000    2.581000
C       8.372000   15.673000   -4.073000
H       8.188000   14.857000   -4.804000
H       8.906000   16.475000   -4.629000
C       7.050000   16.245000   -3.566000
H       6.465000   15.476000   -3.020000
H       6.447000   16.602000   -4.427000
H       7.242000   17.102000   -2.886000
C       7.844000   12.958000   -2.652000
H       7.192000   13.259000   -3.497000
C       1.701000   10.002000   12.972000
C       1.160000   10.807000   13.995000
C       2.042000   11.480000   14.857000
H       1.656000   12.108000   15.651000
C       3.428000   11.363000   14.709000
H       4.071000   11.894000   15.401000
C       3.986000   10.571000   13.692000
C       3.116000    9.894000   12.812000
C       0.895000    9.176000   11.957000
H      -0.208000    9.228000   12.060000
C      -0.328000   10.974000   14.184000
H      -0.547000   11.363000   15.202000
H      -0.842000    9.993000   14.109000
C      -0.902000   11.957000   13.165000
H      -1.994000   12.069000   13.333000
H      -0.738000   11.596000   12.129000
H      -0.421000   12.952000   13.282000
C       5.488000   10.466000   13.580000
H       5.974000   11.318000   14.104000
H       5.805000   10.534000   12.519000
C       5.998000    9.170000   14.207000
H       7.101000    9.114000   14.095000
H       5.546000    8.285000   13.713000
H       5.752000    9.147000   15.290000
C       3.542000    8.992000   11.644000
H       4.634000    8.893000   11.484000
C       9.420000   -5.571000   12.910000
C       9.749000   -6.517000   13.902000
C      10.839000   -6.250000   14.747000
H      11.118000   -6.958000   15.518000
C      11.597000   -5.082000   14.604000
H      12.437000   -4.924000   15.269000
C      11.295000   -4.138000   13.609000
C      10.195000   -4.381000   12.762000
C       8.257000   -5.683000   11.912000
H       7.632000   -6.595000   12.001000
C       8.975000   -7.802000   14.078000
H       7.884000   -7.604000   14.045000
H       9.183000   -8.244000   15.077000
C       9.364000   -8.828000   13.016000
H       9.157000   -8.446000   11.996000
H       8.780000   -9.760000   13.169000
H      10.446000   -9.071000   13.098000
C      12.160000   -2.909000   13.469000
H      12.753000   -2.746000   14.395000
H      11.531000   -2.004000   13.338000
C      13.134000   -3.057000   12.302000
H      12.590000   -3.203000   11.346000
H      13.803000   -3.927000   12.472000
H      13.756000   -2.141000   12.219000
C       9.708000   -3.458000   11.634000
H      10.287000   -2.523000   11.493000
C       7.099000    3.124000  -14.832000
C       7.885000    2.760000  -15.944000
C       8.040000    3.687000  -16.988000
H       8.635000    3.435000  -17.856000
C       7.448000    4.954000  -16.925000
H       7.607000    5.642000  -17.746000
C       6.675000    5.340000  -15.818000
C       6.492000    4.417000  -14.770000
C       6.796000    2.237000  -13.614000
H       7.251000    1.225000  -13.630000
C       8.565000    1.415000  -16.043000
H       8.862000    1.208000  -17.095000
H       7.865000    0.604000  -15.752000
C       9.823000    1.370000  -15.179000
H      10.551000    2.134000  -15.527000
H      10.295000    0.368000  -15.262000
H       9.582000    1.561000  -14.113000
C       6.072000    6.725000  -15.785000
H       5.016000    6.680000  -15.447000
H       6.054000    7.163000  -16.807000
C       6.881000    7.655000  -14.884000
H       7.923000    7.740000  -15.260000
H       6.904000    7.279000  -13.840000
H       6.421000    8.666000  -14.886000
C       5.660000    4.652000  -13.501000
H       5.172000    5.645000  -13.421000
C       7.390000  -14.829000   -0.830000
C       8.183000  -15.791000   -1.486000
C       8.357000  -17.045000   -0.877000
H       8.967000  -17.802000   -1.354000
C       7.759000  -17.341000    0.354000
H       7.917000  -18.322000    0.783000
C       6.965000  -16.394000    1.023000
C       6.788000  -15.127000    0.432000
C       7.083000  -13.415000   -1.346000
H       7.527000  -13.153000   -2.328000
C       8.856000  -15.512000   -2.809000
H       8.153000  -15.005000   -3.503000
H       9.149000  -16.464000   -3.302000
C      10.114000  -14.669000   -2.617000
H      10.587000  -14.477000   -3.602000
H      10.841000  -15.211000   -1.975000
H       9.874000  -13.694000   -2.144000
C       6.335000  -16.760000    2.347000
H       6.470000  -15.938000    3.080000
H       6.840000  -17.651000    2.780000
C       4.853000  -17.091000    2.182000
H       4.725000  -17.939000    1.476000
H       4.289000  -16.215000    1.801000
H       4.428000  -17.383000    3.166000
C       5.972000  -13.967000    1.020000
H       5.499000  -14.161000    2.004000
C      10.470000   -6.434000    4.739000
C      11.236000   -5.588000    3.920000
H      11.673000   -4.686000    4.334000
C      11.426000   -5.898000    2.564000
C      10.852000   -7.063000    2.032000
H      10.992000   -7.302000    0.983000
C      10.083000   -7.909000    2.842000
C       9.898000   -7.594000    4.196000
H       9.299000   -8.245000    4.824000
B      10.226000   -6.074000    6.244000
O       9.406000   -6.901000    7.134000
C       9.443000   -6.136000    8.287000
C       8.790000   -6.443000    9.484000
H       8.201000   -7.346000    9.583000
C       8.914000   -5.535000   10.544000
C       9.688000   -4.345000   10.395000
C      10.333000   -4.060000    9.183000
H      10.913000   -3.155000    9.054000
C      10.190000   -4.980000    8.140000
O      10.733000   -4.850000    6.871000
B      12.244000   -4.939000    1.635000
O      12.836000   -3.681000    2.099000
C      13.369000   -3.206000    0.911000
C      14.060000   -2.001000    0.754000
H      14.227000   -1.341000    1.594000
C      14.524000   -1.679000   -0.530000
C      14.287000   -2.557000   -1.629000
C      13.586000   -3.757000   -1.447000
H      13.394000   -4.428000   -2.274000
C      13.140000   -4.058000   -0.157000
O      12.431000   -5.190000    0.203000
B       9.404000   -9.180000    2.230000
O       9.535000   -9.553000    0.819000
C       8.703000  -10.658000    0.778000
C       8.423000  -11.421000   -0.360000
H       8.874000  -11.185000   -1.315000
C       7.530000  -12.492000   -0.220000
C       6.937000  -12.786000    1.044000
C       7.233000  -12.004000    2.169000
H       6.779000  -12.207000    3.130000
C       8.126000  -10.941000    2.004000
O       8.512000  -10.055000    2.995000
C      10.217000    6.322000   -5.316000
C      11.012000    5.335000   -4.718000
H      11.467000    5.522000   -3.751000
C      11.211000    4.102000   -5.357000
C      10.614000    3.863000   -6.605000
H      10.762000    2.909000   -7.100000
C       9.815000    4.847000   -7.208000
C       9.621000    6.075000   -6.560000
H       8.998000    6.835000   -7.020000
B       9.967000    7.682000   -4.585000
O       9.098000    8.729000   -5.128000
C       9.133000    9.642000   -4.088000
C       8.432000   10.850000   -4.048000
H       7.803000   11.158000   -4.873000
C       8.557000   11.634000   -2.894000
C       9.373000   11.204000   -1.806000
C      10.064000    9.986000   -1.870000
H      10.673000    9.640000   -1.045000
C       9.924000    9.222000   -3.033000
O      10.502000    7.984000   -3.255000
B      12.073000    2.994000   -4.663000
O      12.695000    3.176000   -3.348000
C      13.268000    1.928000   -3.170000
C      13.995000    1.522000   -2.046000
H      14.165000    2.196000   -1.218000
C      14.490000    0.210000   -2.032000
C      14.254000   -0.668000   -3.130000
C      13.520000   -0.237000   -4.245000
H      13.329000   -0.895000   -5.081000
C      13.037000    1.075000   -4.235000
O      12.285000    1.663000   -5.239000
B       9.116000    4.573000   -8.582000
O       9.250000    3.310000   -9.314000
C       8.405000    3.555000  -10.385000
C       8.128000    2.660000  -11.422000
H       8.589000    1.681000  -11.451000
C       7.228000    3.072000  -12.414000
C       6.621000    4.362000  -12.354000
C       6.917000    5.242000  -11.305000
H       6.460000    6.222000  -11.246000
C       7.819000    4.808000  -10.329000
O       8.211000    5.535000   -9.218000
C       1.820000    1.736000   12.793000
C       2.975000    0.947000   12.704000
H       3.941000    1.419000   12.556000
C       2.887000   -0.451000   12.790000
C       1.634000   -1.058000   12.971000
H       1.561000   -2.138000   13.031000
C       0.474000   -0.273000   13.066000
C       0.573000    1.123000   12.979000
H      -0.322000    1.733000   13.044000
B       1.917000    3.293000   12.654000
O       0.743000    4.168000   12.686000
C       1.342000    5.393000   12.446000
C       0.673000    6.617000   12.352000
H      -0.400000    6.676000   12.474000
C       1.442000    7.759000   12.093000
C       2.855000    7.661000   11.924000
C       3.503000    6.421000   12.018000
H       4.573000    6.334000   11.887000
C       2.713000    5.298000   12.284000
O       3.178000    3.997000   12.400000
B       4.181000   -1.323000   12.658000
O       5.509000   -0.745000   12.431000
C       6.266000   -1.899000   12.320000
C       7.640000   -1.944000   12.062000
H       8.215000   -1.036000   11.940000
C       8.238000   -3.207000   11.949000
C       7.463000   -4.395000   12.097000
C       6.086000   -4.322000   12.355000
H       5.484000   -5.215000   12.455000
C       5.513000   -3.050000   12.462000
O       4.169000   -2.789000   12.683000
C       0.194000   12.397000    3.013000
C       0.321000   11.971000    4.342000
H      -0.562000   11.869000    4.963000
C       1.584000   11.667000    4.870000
C       2.724000   11.797000    4.062000
H       3.702000   11.561000    4.468000
C       2.605000   12.220000    2.730000
C       1.338000   12.522000    2.210000
H       1.241000   12.846000    1.179000
B       1.718000   11.168000    6.345000
O       0.567000   10.972000    7.233000
C       1.208000   10.498000    8.365000
C       0.580000   10.122000    9.557000
H      -0.495000   10.187000    9.666000
C       1.393000    9.650000   10.597000
C       2.806000    9.555000   10.431000
C       3.410000    9.936000    9.226000
H       4.480000    9.861000    9.083000
C       2.580000   10.408000    8.206000
O       3.003000   10.812000    6.951000
B       3.877000   12.338000    1.824000
O       5.226000   12.012000    2.294000
C       5.952000   12.238000    1.136000
C       7.333000   12.062000    0.997000
H       7.939000   11.730000    1.830000
C       7.897000   12.319000   -0.260000
C       7.081000   12.748000   -1.349000
C       5.700000   12.918000   -1.183000
H       5.070000   13.234000   -2.004000
C       5.161000   12.652000    0.079000
O       3.821000   12.747000    0.417000
B       0.935000    0.943000  -13.236000
O       1.133000    2.395000  -13.251000
C       2.513000    2.455000  -13.356000
C       3.274000    3.626000  -13.385000
H       2.802000    4.599000  -13.334000
C       4.667000    3.495000  -13.473000
C       5.274000    2.206000  -13.532000
C       4.488000    1.045000  -13.495000
H       4.937000    0.061000  -13.527000
C       3.102000    1.203000  -13.406000
O       2.179000    0.173000  -13.337000
B       1.213000  -12.694000   -2.421000
O       1.426000  -13.102000   -1.030000
C       2.806000  -13.215000   -1.015000
C       3.578000  -13.569000    0.095000
H       3.116000  -13.792000    1.048000
C       4.968000  -13.618000   -0.072000
C       5.561000  -13.322000   -1.335000
C       4.765000  -12.964000   -2.431000
H       5.203000  -12.724000   -3.391000
C       3.381000  -12.919000   -2.239000
O       2.448000  -12.574000   -3.201000
C     -16.341000    1.814000    2.664000
C     -17.422000    2.377000    3.372000
C     -18.728000    2.033000    2.985000
H     -19.580000    2.453000    3.506000
C     -18.961000    1.154000    1.921000
H     -19.984000    0.913000    1.661000
C     -17.896000    0.585000    1.202000
C     -16.579000    0.925000    1.570000
C     -14.853000    2.065000    2.949000
H     -14.632000    2.742000    3.799000
C     -17.219000    3.339000    4.518000
H     -16.429000    2.964000    5.202000
H     -18.147000    3.416000    5.126000
C     -16.867000    4.735000    4.010000
H     -15.923000    4.721000    3.427000
H     -16.740000    5.422000    4.873000
H     -17.684000    5.123000    3.365000
C     -18.194000   -0.369000    0.069000
H     -17.568000   -0.126000   -0.815000
H     -19.251000   -0.262000   -0.258000
C     -17.975000   -1.819000    0.495000
H     -18.194000   -2.493000   -0.359000
H     -18.655000   -2.077000    1.334000
H     -16.926000   -1.987000    0.817000
C     -15.297000    0.418000    0.893000
H     -15.444000   -0.267000    0.033000
C      -9.779000  -13.517000    1.206000
C     -10.849000  -14.316000    0.755000
C     -11.106000  -15.527000    1.418000
H     -11.922000  -16.162000    1.097000
C     -10.310000  -15.950000    2.489000
H     -10.535000  -16.899000    2.960000
C      -9.225000  -15.178000    2.936000
C      -8.965000  -13.948000    2.297000
C      -9.367000  -12.157000    0.622000
H      -9.980000  -11.790000   -0.226000
C     -11.711000  -13.919000   -0.419000
H     -11.997000  -12.848000   -0.347000
H     -12.662000  -14.496000   -0.414000
C     -10.997000  -14.193000   -1.741000
H     -11.656000  -13.903000   -2.586000
H     -10.761000  -15.275000   -1.830000
H     -10.055000  -13.611000   -1.813000
C      -8.372000  -15.690000    4.072000
H      -8.908000  -16.490000    4.628000
H      -8.177000  -14.880000    4.805000
C      -7.058000  -16.270000    3.555000
H      -6.469000  -15.502000    3.012000
H      -7.261000  -17.120000    2.870000
H      -6.454000  -16.640000    4.410000
C      -7.842000  -12.964000    2.662000
H      -7.191000  -13.268000    3.507000
C      -1.708000   -9.998000  -12.979000
C      -1.163000  -10.803000  -13.999000
C      -2.042000  -11.487000  -14.856000
H      -1.653000  -12.120000  -15.645000
C      -3.429000  -11.377000  -14.707000
H      -4.068000  -11.918000  -15.394000
C      -3.991000  -10.578000  -13.697000
C      -3.124000   -9.893000  -12.821000
C      -0.905000   -9.176000  -11.959000
H       0.198000   -9.227000  -12.059000
C       0.326000  -10.963000  -14.189000
H       0.834000   -9.979000  -14.117000
H       0.546000  -11.352000  -15.206000
C       0.907000  -11.940000  -13.169000
H       2.001000  -12.042000  -13.334000
H       0.435000  -12.939000  -13.287000
H       0.738000  -11.581000  -12.133000
C      -5.493000  -10.474000  -13.589000
H      -5.814000  -10.568000  -12.531000
H      -5.979000  -11.311000  -14.137000
C      -5.998000   -9.162000  -14.185000
H      -5.737000   -9.107000  -15.264000
H      -5.555000   -8.290000  -13.662000
H      -7.103000   -9.110000  -14.086000
C      -3.553000   -8.992000  -11.652000
H      -4.646000   -8.895000  -11.495000
C      -9.414000    5.573000  -12.914000
C      -9.746000    6.520000  -13.903000
C     -10.838000    6.255000  -14.746000
H     -11.118000    6.964000  -15.515000
C     -11.596000    5.088000  -14.603000
H     -12.438000    4.931000  -15.267000
C     -11.294000    4.142000  -13.609000
C     -10.190000    4.382000  -12.766000
C      -8.251000    5.684000  -11.916000
H      -7.626000    6.595000  -12.005000
C      -8.974000    7.806000  -14.077000
H      -9.179000    8.247000  -15.077000
H      -7.882000    7.610000  -14.042000
C      -9.366000    8.833000  -13.017000
H      -9.149000    8.456000  -11.997000
H     -10.450000    9.066000  -13.094000
H      -8.791000    9.770000  -13.178000
C     -12.165000    2.917000  -13.465000
H     -11.538000    2.009000  -13.344000
H     -12.767000    2.761000  -14.387000
C     -13.127000    3.064000  -12.289000
H     -13.749000    2.149000  -12.201000
H     -13.797000    3.935000  -12.452000
H     -12.575000    3.209000  -11.337000
C      -9.702000    3.457000  -11.640000
H     -10.281000    2.522000  -11.499000
C      -7.097000   -3.127000   14.833000
C      -7.882000   -2.764000   15.945000
C      -8.041000   -3.693000   16.987000
H      -8.643000   -3.444000   17.853000
C      -7.444000   -4.958000   16.927000
H      -7.603000   -5.646000   17.748000
C      -6.669000   -5.342000   15.821000
C      -6.490000   -4.420000   14.770000
C      -6.794000   -2.239000   13.617000
H      -7.247000   -1.227000   13.635000
C      -8.558000   -1.418000   16.046000
H      -7.855000   -0.610000   15.755000
H      -8.852000   -1.211000   17.098000
C      -9.816000   -1.369000   15.183000
H     -10.542000   -2.138000   15.523000
H      -9.574000   -1.550000   14.115000
H     -10.289000   -0.369000   15.273000
C      -6.065000   -6.726000   15.788000
H      -6.048000   -7.165000   16.809000
H      -5.007000   -6.679000   15.452000
C      -6.873000   -7.654000   14.885000
H      -6.410000   -8.663000   14.879000
H      -6.901000   -7.271000   13.843000
H      -7.913000   -7.743000   15.264000
C      -5.662000   -4.655000   13.498000
H      -5.177000   -5.649000   13.416000
C      -7.395000   14.829000    0.818000
C      -8.183000   15.792000    1.479000
C      -8.351000   17.049000    0.875000
H      -8.952000   17.810000    1.359000
C      -7.755000   17.347000   -0.356000
H      -7.906000   18.332000   -0.781000
C      -6.966000   16.399000   -1.029000
C      -6.792000   15.130000   -0.442000
C      -7.087000   13.416000    1.334000
H      -7.532000   13.151000    2.314000
C      -8.847000   15.512000    2.805000
H      -9.131000   16.464000    3.303000
H      -8.139000   15.002000    3.492000
C     -10.110000   14.674000    2.622000
H      -9.879000   13.704000    2.135000
H     -10.845000   15.225000    1.997000
H     -10.567000   14.472000    3.613000
C      -6.326000   16.771000   -2.345000
H      -6.824000   17.667000   -2.778000
H      -6.458000   15.953000   -3.084000
C      -4.844000   17.094000   -2.166000
H      -4.403000   17.370000   -3.146000
H      -4.291000   16.220000   -1.764000
H      -4.721000   17.950000   -1.468000
C      -5.973000   13.971000   -1.031000
H      -5.498000   14.166000   -2.014000
C     -10.469000    6.432000   -4.746000
C     -11.233000    5.586000   -3.927000
H     -11.673000    4.686000   -4.341000
C     -11.418000    5.894000   -2.570000
C     -10.842000    7.057000   -2.037000
H     -10.978000    7.295000   -0.988000
C     -10.076000    7.906000   -2.850000
C      -9.895000    7.592000   -4.204000
H      -9.298000    8.244000   -4.832000
B     -10.228000    6.076000   -6.252000
O      -9.410000    6.904000   -7.142000
C      -9.443000    6.138000   -8.294000
C      -8.788000    6.445000   -9.490000
H      -8.202000    7.349000   -9.590000
C      -8.908000    5.534000  -10.549000
C      -9.681000    4.344000  -10.399000
C     -10.327000    4.059000   -9.188000
H     -10.905000    3.153000   -9.058000
C     -10.188000    4.980000   -8.146000
O     -10.731000    4.850000   -6.879000
B     -12.238000    4.936000   -1.642000
O     -12.836000    3.680000   -2.106000
C     -13.372000    3.208000   -0.918000
C     -14.067000    2.004000   -0.761000
H     -14.237000    1.345000   -1.602000
C     -14.529000    1.683000    0.524000
C     -14.290000    2.560000    1.622000
C     -13.586000    3.758000    1.440000
H     -13.391000    4.428000    2.267000
C     -13.139000    4.057000    0.150000
O     -12.424000    5.187000   -0.210000
B      -9.399000    9.178000   -2.241000
O      -9.528000    9.550000   -0.830000
C      -8.698000   10.657000   -0.790000
C      -8.419000   11.420000    0.347000
H      -8.868000   11.181000    1.302000
C      -7.530000   12.493000    0.207000
C      -6.937000   12.788000   -1.056000
C      -7.232000   12.007000   -2.183000
H      -6.781000   12.213000   -3.145000
C      -8.123000   10.942000   -2.017000
O      -8.511000   10.055000   -3.008000
C     -10.223000   -6.317000    5.317000
C     -11.020000   -5.331000    4.718000
H     -11.470000   -5.518000    3.749000
C     -11.224000   -4.099000    5.357000
C     -10.630000   -3.857000    6.606000
H     -10.782000   -2.904000    7.101000
C      -9.829000   -4.838000    7.210000
C      -9.632000   -6.067000    6.564000
H      -9.009000   -6.826000    7.026000
B      -9.967000   -7.678000    4.587000
O      -9.098000   -8.725000    5.133000
C      -9.132000   -9.641000    4.095000
C      -8.433000  -10.852000    4.058000
H      -7.807000  -11.160000    4.886000
C      -8.556000  -11.639000    2.904000
C      -9.370000  -11.208000    1.815000
C     -10.061000   -9.990000    1.877000
H     -10.670000   -9.646000    1.051000
C      -9.921000   -9.223000    3.038000
O     -10.499000   -7.984000    3.256000
B     -12.086000   -2.992000    4.664000
O     -12.700000   -3.171000    3.345000
C     -13.271000   -1.923000    3.166000
C     -13.994000   -1.516000    2.041000
H     -14.161000   -2.190000    1.211000
C     -14.490000   -0.205000    2.026000
C     -14.255000    0.673000    3.125000
C     -13.527000    0.241000    4.243000
H     -13.340000    0.899000    5.081000
C     -13.045000   -1.072000    4.234000
O     -12.299000   -1.661000    5.241000
B      -9.127000   -4.561000    8.582000
O      -9.258000   -3.298000    9.316000
C      -8.413000   -3.546000   10.386000
C      -8.133000   -2.654000   11.426000
H      -8.593000   -1.675000   11.460000
C      -7.232000   -3.071000   12.417000
C      -6.628000   -4.362000   12.354000
C      -6.928000   -5.239000   11.302000
H      -6.474000   -6.220000   11.240000
C      -7.829000   -4.800000   10.328000
O      -8.223000   -5.524000    9.217000
C      -1.814000   -1.735000  -12.770000
C      -2.969000   -0.944000  -12.691000
H      -3.935000   -1.415000  -12.544000
C      -2.881000    0.452000  -12.788000
C      -1.627000    1.058000  -12.970000
H      -1.554000    2.137000  -13.038000
C      -0.468000    0.271000  -13.057000
C      -0.566000   -1.124000  -12.958000
H       0.328000   -1.734000  -13.016000
B      -1.913000   -3.289000  -12.623000
O      -0.740000   -4.166000  -12.656000
C      -1.344000   -5.391000  -12.425000
C      -0.678000   -6.617000  -12.339000
H       0.396000   -6.677000  -12.455000
C      -1.451000   -7.759000  -12.091000
C      -2.864000   -7.660000  -11.926000
C      -3.508000   -6.417000  -12.011000
H      -4.578000   -6.326000  -11.880000
C      -2.715000   -5.293000  -12.267000
O      -3.175000   -3.991000  -12.376000
B      -4.175000    1.325000  -12.666000
O      -5.503000    0.746000  -12.440000
C      -6.260000    1.900000  -12.329000
C      -7.633000    1.945000  -12.069000
H      -8.208000    1.036000  -11.947000
C      -8.232000    3.207000  -11.956000
C      -7.457000    4.395000  -12.102000
C      -6.080000    4.323000  -12.361000
H      -5.478000    5.216000  -12.458000
C      -5.507000    3.052000  -12.470000
O      -4.163000    2.791000  -12.690000
C      -0.200000  -12.382000   -3.011000
C      -0.331000  -11.965000   -4.344000
H       0.552000  -11.860000   -4.965000
C      -1.597000  -11.675000   -4.874000
C      -2.735000  -11.805000   -4.064000
H      -3.714000  -11.578000   -4.470000
C      -2.611000  -12.220000   -2.729000
C      -1.342000  -12.508000   -2.207000
H      -1.243000  -12.825000   -1.174000
B      -1.735000  -11.191000   -6.356000
O      -0.586000  -10.990000   -7.243000
C      -1.226000  -10.516000   -8.375000
C      -0.598000  -10.131000   -9.563000
H       0.478000  -10.191000   -9.670000
C      -1.408000   -9.653000  -10.602000
C      -2.822000   -9.560000  -10.439000
C      -3.428000   -9.955000   -9.239000
H      -4.499000   -9.885000   -9.099000
C      -2.600000  -10.432000   -8.219000
O      -3.022000  -10.842000   -6.965000
B      -3.880000  -12.346000   -1.822000
O      -5.230000  -12.021000   -2.289000
C      -5.954000  -12.249000   -1.130000
C      -7.332000  -12.069000   -0.988000
H      -7.939000  -11.735000   -1.819000
C      -7.894000  -12.324000    0.270000
C      -7.079000  -12.755000    1.358000
C      -5.698000  -12.930000    1.189000
H      -5.067000  -13.250000    2.008000
C      -5.161000  -12.666000   -0.075000
O      -3.821000  -12.759000   -0.416000
B      -0.930000   -0.948000   13.242000
O      -1.130000   -2.400000   13.251000
C      -2.510000   -2.461000   13.355000
C      -3.274000   -3.632000   13.382000
H      -2.803000   -4.606000   13.332000
C      -4.667000   -3.500000   13.469000
C      -5.272000   -2.210000   13.531000
C      -4.485000   -1.051000   13.499000
H      -4.933000   -0.066000   13.535000
C      -3.099000   -1.209000   13.409000
O      -2.175000   -0.179000   13.343000
B      -1.219000   12.713000    2.423000
O      -1.429000   13.117000    1.031000
C      -2.810000   13.225000    1.013000
C      -3.579000   13.576000   -0.099000
H      -3.115000   13.798000   -1.051000
C      -4.971000   13.623000    0.063000
C      -5.565000   13.325000    1.325000
C      -4.771000   12.969000    2.424000
H      -5.212000   12.729000    3.383000
C      -3.387000   12.928000    2.235000
O      -2.455000   12.588000    3.201000
