264
00000001
N       0.471000   -5.275000    1.436000
O      -1.579000   -6.123000    1.822000
Br      1.373000   -8.548000    1.458000
C       1.835000   -3.609000    3.444000
H       0.955000   -4.118000    3.819000
C       2.481000   -4.092000    2.295000
C       1.949000   -5.299000    1.560000
H       2.395000   -5.358000    0.547000
H       2.334000   -6.180000    2.084000
C      -0.122000   -4.089000    0.765000
H       0.304000   -3.156000    1.190000
H      -1.212000   -3.993000    0.949000
C      -0.371000   -6.277000    1.924000
C       0.104000   -7.582000    2.590000
C      -1.077000   -8.564000    2.770000
H      -0.729000   -9.520000    3.218000
H      -1.545000   -8.796000    1.789000
H      -1.856000   -8.135000    3.439000
C       0.688000   -7.315000    3.993000
H       1.548000   -6.623000    3.993000
H       1.030000   -8.266000    4.453000
H      -0.088000   -6.868000    4.651000
N      -0.451000    5.266000    1.422000
O       1.613000    6.084000    1.798000
Br     -1.292000    8.563000    1.487000
C      -1.830000    3.638000    3.445000
H      -0.942000    4.138000    3.811000
C      -2.475000    4.120000    2.295000
C      -1.928000    5.313000    1.547000
H      -2.376000    5.368000    0.536000
H      -2.300000    6.204000    2.062000
C       0.122000    4.070000    0.751000
H      -0.309000    3.144000    1.186000
H       1.213000    3.963000    0.923000
C       0.408000    6.252000    1.913000
C      -0.043000    7.553000    2.603000
C       1.156000    8.507000    2.804000
H       1.624000    8.757000    1.827000
H       1.929000    8.047000    3.458000
H       0.828000    9.457000    3.279000
C      -0.636000    7.271000    3.999000
H      -1.506000    6.594000    3.985000
H      -0.964000    8.219000    4.474000
H       0.131000    6.802000    4.652000
N      -0.453000   -5.277000   -1.417000
O       1.600000   -6.115000   -1.807000
Br     -1.342000   -8.553000   -1.434000
C      -1.829000   -3.625000   -3.429000
H      -0.950000   -4.134000   -3.805000
C      -2.469000   -4.103000   -2.275000
C      -1.931000   -5.307000   -1.539000
H      -2.377000   -5.366000   -0.525000
H      -2.313000   -6.189000   -2.062000
C       0.135000   -4.089000   -0.747000
H      -0.294000   -3.158000   -1.172000
H       1.225000   -3.990000   -0.930000
C       0.392000   -6.276000   -1.905000
C      -0.077000   -7.584000   -2.568000
C       1.108000   -8.560000   -2.746000
H       1.883000   -8.131000   -3.419000
H       0.764000   -9.520000   -3.189000
H       1.579000   -8.786000   -1.765000
C      -0.663000   -7.322000   -3.971000
H      -0.991000   -8.277000   -4.434000
H       0.107000   -6.863000   -4.628000
H      -1.533000   -6.644000   -3.971000
N       0.421000    5.253000   -1.439000
O      -1.644000    6.062000   -1.830000
Br      1.268000    8.541000   -1.484000
C       1.809000    3.612000   -3.453000
H       0.922000    4.109000   -3.827000
C       2.446000    4.101000   -2.302000
C       1.897000    5.301000   -1.568000
H       2.347000    5.369000   -0.557000
H       2.266000    6.186000   -2.095000
C      -0.150000    4.062000   -0.758000
H       0.283000    3.134000   -1.185000
H      -1.241000    3.953000   -0.929000
C      -0.440000    6.237000   -1.932000
C       0.011000    7.546000   -2.606000
C      -1.187000    8.506000   -2.788000
H      -1.962000    8.059000   -3.449000
H      -0.858000    9.464000   -3.245000
H      -1.653000    8.737000   -1.806000
C       0.596000    7.279000   -4.009000
H       0.917000    8.233000   -4.478000
H      -0.174000    6.812000   -4.661000
H       1.469000    6.605000   -4.006000
N       1.432000    0.440000   -5.261000
O       1.821000   -1.620000   -6.083000
Br      1.458000    1.307000   -8.543000
C       3.444000    1.832000   -3.616000
H       3.822000    0.949000   -4.118000
C       2.288000    2.464000   -4.101000
C       1.555000    1.917000   -5.302000
H       0.543000    2.364000   -5.370000
H       2.083000    2.291000   -6.185000
C       0.760000   -0.139000   -4.069000
H       1.190000    0.291000   -3.140000
H       0.936000   -1.229000   -3.964000
C       1.921000   -0.414000   -6.252000
C       2.588000    0.046000   -7.563000
C       2.765000   -1.146000   -8.531000
H       3.211000   -0.809000   -9.492000
H       1.782000   -1.615000   -8.755000
H       3.433000   -1.921000   -8.095000
C       3.991000    0.630000   -7.301000
H       4.457000    0.951000   -8.257000
H       4.645000   -0.139000   -6.837000
H       3.992000    1.504000   -6.627000
N       1.430000   -0.433000    5.255000
O       1.794000    1.619000    6.111000
Br      1.471000   -1.328000    8.538000
C       3.442000   -1.804000    3.603000
H       3.807000   -0.913000    4.101000
C       2.294000   -2.450000    4.087000
C       1.550000   -1.911000    5.285000
H       0.537000   -2.355000    5.336000
H       2.066000   -2.294000    6.171000
C       0.766000    0.158000    4.065000
H       1.198000   -0.267000    3.135000
H       0.948000    1.248000    3.970000
C       1.912000    0.411000    6.259000
C       2.593000   -0.061000    7.558000
C       2.784000    1.121000    8.536000
H       3.438000    1.905000    8.094000
H       3.254000    0.775000    9.482000
H       1.805000    1.581000    8.788000
C       3.991000   -0.646000    7.274000
H       4.655000    0.137000    6.848000
H       3.986000   -1.486000    6.559000
H       4.450000   -1.017000    8.216000
N      -1.428000   -0.459000   -5.251000
O      -1.820000    1.595000   -6.087000
Br     -1.456000   -1.347000   -8.527000
C      -3.442000   -1.825000   -3.593000
H      -3.812000   -0.940000   -4.097000
C      -2.294000   -2.472000   -4.078000
C      -1.555000   -1.936000   -5.281000
H      -0.543000   -2.386000   -5.339000
H      -2.078000   -2.318000   -6.163000
C      -0.751000    0.127000   -4.066000
H      -1.177000   -0.298000   -3.133000
H      -0.927000    1.218000   -3.968000
C      -1.919000    0.388000   -6.248000
C      -2.587000   -0.081000   -7.554000
C      -2.766000    1.104000   -8.530000
H      -3.435000    1.880000   -8.098000
H      -3.214000    0.761000   -9.488000
H      -1.785000    1.573000   -8.759000
C      -3.989000   -0.666000   -7.288000
H      -3.988000   -1.534000   -6.606000
H      -4.454000   -0.996000   -8.241000
H      -4.645000    0.106000   -6.830000
N      -1.423000    0.469000    5.245000
O      -1.813000   -1.595000    6.055000
Br     -1.459000    1.311000    8.536000
C      -3.454000    1.849000    3.621000
H      -3.823000    0.964000    4.125000
C      -2.300000    2.490000    4.098000
C      -1.551000    1.946000    5.291000
H      -0.540000    2.396000    5.346000
H      -2.066000    2.318000    6.182000
C      -0.746000   -0.102000    4.053000
H      -1.167000    0.339000    3.126000
H      -0.926000   -1.190000    3.939000
C      -1.915000   -0.390000    6.231000
C      -2.588000    0.062000    7.540000
C      -2.775000   -1.138000    8.497000
H      -1.796000   -1.612000    8.724000
H      -3.444000   -1.905000    8.050000
H      -3.226000   -0.808000    9.458000
C      -3.988000    0.654000    7.276000
H      -4.635000   -0.101000    6.780000
H      -3.979000    1.549000    6.631000
H      -4.468000    0.948000    8.234000
N      -5.259000    1.437000    0.455000
O      -6.063000    1.827000   -1.612000
Br     -8.541000    1.455000    1.301000
C      -3.628000    3.471000    1.830000
H      -4.133000    3.842000    0.946000
C      -4.108000    2.319000    2.473000
C      -5.305000    1.575000    1.931000
H      -5.369000    0.567000    2.387000
H      -6.192000    2.101000    2.298000
C      -4.066000    0.756000   -0.112000
H      -3.139000    1.183000    0.323000
H      -3.953000    0.927000   -1.202000
C      -6.243000    1.925000   -0.407000
C      -7.561000    2.585000    0.041000
C      -8.522000    2.750000   -1.158000
H      -8.737000    1.764000   -1.624000
H      -8.085000    3.418000   -1.933000
H      -9.488000    3.192000   -0.830000
C      -7.312000    3.993000    0.621000
H      -6.855000    4.649000   -0.150000
H      -6.638000    4.002000    1.494000
H      -8.273000    4.450000    0.942000
N       5.260000    1.453000   -0.447000
O       6.092000    1.836000    1.610000
Br      8.537000    1.476000   -1.331000
C       3.601000    3.460000   -1.830000
H       4.103000    3.839000   -0.948000
C       4.090000    2.309000   -2.467000
C       5.296000    1.581000   -1.924000
H       5.366000    0.570000   -2.373000
H       6.176000    2.113000   -2.300000
C       4.071000    0.779000    0.135000
H       3.141000    1.209000   -0.291000
H       3.971000    0.953000    1.226000
C       6.256000    1.938000    0.404000
C       7.567000    2.603000   -0.060000
C       8.541000    2.771000    1.129000
H       9.502000    3.216000    0.789000
H       8.766000    1.786000    1.592000
H       8.111000    3.438000    1.908000
C       7.307000    4.009000   -0.637000
H       6.853000    4.663000    0.139000
H       6.624000    4.016000   -1.504000
H       8.262000    4.471000   -0.966000
N      -5.262000   -1.426000   -0.426000
O      -6.102000   -1.809000    1.629000
Br     -8.544000   -1.466000   -1.312000
C      -3.614000   -3.446000   -1.801000
H      -4.118000   -3.817000   -0.916000
C      -4.092000   -2.292000   -2.441000
C      -5.293000   -1.551000   -1.903000
H      -5.350000   -0.539000   -2.351000
H      -6.177000   -2.071000   -2.284000
C      -4.074000   -0.753000    0.161000
H      -3.143000   -1.188000   -0.259000
H      -3.981000   -0.924000    1.253000
C      -6.260000   -1.915000    0.421000
C      -7.564000   -2.590000   -0.046000
C      -8.537000   -2.774000    1.141000
H      -8.102000   -3.444000    1.915000
H      -9.495000   -3.223000    0.798000
H      -8.769000   -1.794000    1.611000
C      -7.291000   -3.991000   -0.631000
H      -6.635000   -3.984000   -1.518000
H      -8.245000   -4.473000   -0.935000
H      -6.803000   -4.635000    0.132000
N       5.261000   -1.406000    0.443000
O       6.085000   -1.792000   -1.617000
Br      8.541000   -1.434000    1.317000
C       3.627000   -3.436000    1.823000
H       4.135000   -3.810000    0.942000
C       4.100000   -2.278000    2.459000
C       5.300000   -1.537000    1.920000
H       5.362000   -0.527000    2.372000
H       6.183000   -2.063000    2.293000
C       4.070000   -0.731000   -0.135000
H       3.141000   -1.161000    0.295000
H       3.967000   -0.905000   -1.225000
C       6.254000   -1.893000   -0.411000
C       7.564000   -2.559000    0.049000
C       8.535000   -2.730000   -1.142000
H       8.760000   -1.745000   -1.605000
H       8.101000   -3.394000   -1.921000
H       9.495000   -3.177000   -0.806000
C       7.303000   -3.965000    0.627000
H       8.259000   -4.430000    0.950000
H       6.843000   -4.617000   -0.147000
H       6.626000   -3.970000    1.498000
