198
00000001
C       0.668000    0.393000   -9.227000
H       1.507000   -0.327000   -9.352000
H       0.688000    1.083000  -10.097000
C       0.889000    1.203000   -7.930000
H       0.170000    2.051000   -7.879000
H       1.918000    1.620000   -7.933000
C       0.703000    0.262000   -6.735000
H       1.422000   -0.591000   -6.826000
N       0.826000    0.880000   -5.419000
C       2.236000    0.945000   -4.980000
H       2.857000    1.412000   -5.775000
H       2.645000   -0.077000   -4.808000
C       2.403000    1.797000   -3.744000
C       3.498000    1.566000   -2.898000
H       4.179000    0.754000   -3.123000
H      -0.621000    0.646000   -3.894000
C      -9.228000    0.668000    0.393000
H      -9.353000    1.506000   -0.327000
H     -10.098000    0.687000    1.083000
C      -7.930000    0.889000    1.203000
H      -7.880000    0.170000    2.051000
H      -7.934000    1.918000    1.620000
C      -6.735000    0.703000    0.262000
H      -6.826000    1.422000   -0.591000
N      -5.420000    0.826000    0.880000
C      -4.981000    2.236000    0.946000
H      -5.775000    2.857000    1.413000
H      -4.809000    2.645000   -0.076000
C      -3.744000    2.404000    1.797000
C      -2.898000    3.498000    1.566000
H      -3.123000    4.178000    0.754000
H      -3.894000   -0.620000    0.646000
C       0.393000   -9.228000    0.668000
H      -0.327000   -9.353000    1.506000
H       1.084000  -10.098000    0.687000
C       1.203000   -7.930000    0.889000
H       2.051000   -7.880000    0.170000
H       1.621000   -7.934000    1.918000
C       0.262000   -6.735000    0.703000
H      -0.591000   -6.826000    1.422000
N       0.880000   -5.420000    0.827000
C       0.946000   -4.981000    2.236000
H       1.413000   -5.775000    2.857000
H      -0.076000   -4.809000    2.646000
C       1.797000   -3.744000    2.404000
C       1.566000   -2.898000    3.498000
H       0.754000   -3.123000    4.178000
H       0.646000   -3.894000   -0.620000
C      -0.668000   -0.392000   -9.228000
H      -1.506000    0.328000   -9.353000
H      -0.687000   -1.082000  -10.098000
C      -0.889000   -1.202000   -7.930000
H      -0.170000   -2.050000   -7.880000
H      -1.918000   -1.620000   -7.934000
C      -0.703000   -0.262000   -6.735000
H      -1.423000    0.591000   -6.826000
N      -0.827000   -0.880000   -5.420000
C      -2.237000   -0.947000   -4.981000
H      -2.857000   -1.414000   -5.776000
H      -2.647000    0.076000   -4.809000
C      -2.404000   -1.797000   -3.745000
C      -3.499000   -1.567000   -2.899000
H      -4.179000   -0.755000   -3.123000
H       0.619000   -0.646000   -3.893000
C       9.228000   -0.668000    0.393000
H       9.353000   -1.506000   -0.327000
H      10.098000   -0.687000    1.083000
C       7.930000   -0.889000    1.203000
H       7.880000   -0.170000    2.051000
H       7.934000   -1.918000    1.621000
C       6.735000   -0.703000    0.262000
H       6.827000   -1.422000   -0.591000
N       5.420000   -0.826000    0.880000
C       4.981000   -2.236000    0.946000
H       5.776000   -2.857000    1.413000
H       4.809000   -2.646000   -0.076000
C       3.745000   -2.403000    1.797000
C       2.899000   -3.498000    1.567000
H       3.124000   -4.179000    0.754000
H       3.894000    0.620000    0.646000
C      -0.392000    9.228000    0.669000
H       0.328000    9.352000    1.507000
H      -1.083000   10.098000    0.688000
C      -1.203000    7.930000    0.889000
H      -2.050000    7.880000    0.171000
H      -1.620000    7.934000    1.918000
C      -0.262000    6.735000    0.703000
H       0.591000    6.826000    1.423000
N      -0.880000    5.420000    0.827000
C      -0.946000    4.981000    2.236000
H      -1.412000    5.775000    2.857000
H       0.077000    4.808000    2.645000
C      -1.797000    3.744000    2.404000
C      -1.567000    2.899000    3.499000
H      -0.755000    3.124000    4.180000
H      -0.647000    3.895000   -0.621000
C       0.668000   -0.393000    9.228000
H       1.507000    0.327000    9.353000
H       0.688000   -1.084000   10.098000
C       0.889000   -1.203000    7.930000
H       0.170000   -2.051000    7.880000
H       1.918000   -1.621000    7.934000
C       0.703000   -0.262000    6.735000
H       1.422000    0.591000    6.826000
N       0.826000   -0.880000    5.420000
C       2.236000   -0.945000    4.980000
H       2.857000   -1.412000    5.775000
H       2.645000    0.077000    4.808000
C       2.403000   -1.797000    3.744000
C       3.498000   -1.566000    2.898000
H       4.179000   -0.754000    3.123000
H      -0.621000   -0.646000    3.895000
C      -9.228000   -0.668000   -0.392000
H      -9.353000   -1.507000    0.328000
H     -10.098000   -0.688000   -1.082000
C      -7.930000   -0.889000   -1.202000
H      -7.880000   -0.171000   -2.050000
H      -7.934000   -1.918000   -1.620000
C      -6.735000   -0.703000   -0.261000
H      -6.826000   -1.423000    0.592000
N      -5.420000   -0.827000   -0.880000
C      -4.981000   -2.237000   -0.946000
H      -5.776000   -2.857000   -1.413000
H      -4.809000   -2.646000    0.076000
C      -3.745000   -2.404000   -1.797000
C      -2.899000   -3.499000   -1.567000
H      -3.123000   -4.179000   -0.754000
H      -3.894000    0.620000   -0.646000
C       0.393000    9.228000   -0.668000
H      -0.327000    9.353000   -1.506000
H       1.083000   10.098000   -0.687000
C       1.203000    7.930000   -0.889000
H       2.050000    7.880000   -0.170000
H       1.620000    7.934000   -1.918000
C       0.262000    6.735000   -0.703000
H      -0.591000    6.826000   -1.422000
N       0.880000    5.420000   -0.827000
C       0.947000    4.981000   -2.237000
H       1.414000    5.776000   -2.857000
H      -0.076000    4.810000   -2.646000
C       1.797000    3.745000   -2.404000
C       1.566000    2.898000   -3.498000
H       0.754000    3.123000   -4.178000
H       0.646000    3.893000    0.619000
C      -0.668000    0.392000    9.228000
H      -1.506000   -0.328000    9.353000
H      -0.687000    1.082000   10.099000
C      -0.889000    1.202000    7.931000
H      -0.170000    2.050000    7.881000
H      -1.918000    1.620000    7.935000
C      -0.704000    0.262000    6.735000
H      -1.423000   -0.591000    6.827000
N      -0.827000    0.880000    5.420000
C      -2.237000    0.947000    4.982000
H      -2.857000    1.414000    5.776000
H      -2.647000   -0.075000    4.810000
C      -2.404000    1.797000    3.745000
C      -3.499000    1.567000    2.899000
H      -4.179000    0.755000    3.124000
H       0.618000    0.646000    3.894000
C       9.228000    0.668000   -0.392000
H       9.353000    1.507000    0.328000
H      10.099000    0.688000   -1.082000
C       7.931000    0.889000   -1.202000
H       7.881000    0.170000   -2.050000
H       7.935000    1.918000   -1.620000
C       6.735000    0.703000   -0.262000
H       6.826000    1.423000    0.591000
N       5.420000    0.827000   -0.880000
C       4.981000    2.237000   -0.946000
H       5.776000    2.857000   -1.413000
H       4.809000    2.646000    0.076000
C       3.745000    2.404000   -1.797000
C       2.899000    3.499000   -1.567000
H       3.124000    4.180000   -0.755000
H       3.894000   -0.620000   -0.646000
C      -0.392000   -9.228000   -0.668000
H       0.328000   -9.353000   -1.507000
H      -1.082000  -10.098000   -0.688000
C      -1.202000   -7.930000   -0.889000
H      -2.050000   -7.881000   -0.170000
H      -1.620000   -7.934000   -1.918000
C      -0.261000   -6.735000   -0.703000
H       0.592000   -6.826000   -1.423000
N      -0.880000   -5.420000   -0.827000
C      -0.946000   -4.981000   -2.237000
H      -1.413000   -5.776000   -2.857000
H       0.076000   -4.809000   -2.646000
C      -1.797000   -3.745000   -2.404000
C      -1.567000   -2.899000   -3.499000
H      -0.755000   -3.124000   -4.179000
H      -0.646000   -3.894000    0.620000
C      -0.001000   -0.000000   -4.555000
C      -4.555000   -0.000000   -0.000000
C       0.000000   -4.555000   -0.000000
C       4.555000   -0.000000   -0.000000
C       0.000000    4.555000   -0.000000
C      -0.001000   -0.000000    4.555000
