340
00000001
O       3.218000   -3.756000    2.228000
C       1.963000   -3.905000    1.554000
H       2.144000   -4.431000    0.597000
H       1.509000   -2.919000    1.282000
O       1.083000   -4.718000    2.333000
C       0.115000   -3.989000    3.035000
C       0.446000   -3.332000    4.236000
C      -0.529000   -2.540000    4.869000
H      -0.269000   -1.969000    5.746000
C      -1.845000   -2.480000    4.378000
C      -2.155000   -3.130000    3.160000
C      -1.182000   -3.906000    2.515000
O      -1.474000   -4.538000    1.302000
C      -1.956000   -5.870000    1.473000
H      -2.976000   -5.839000    1.916000
H      -1.293000   -6.449000    2.157000
C      -2.018000   -6.579000    0.115000
H      -2.658000   -5.976000   -0.567000
O      -2.618000   -7.826000    0.280000
C      -1.699000   -8.792000   -0.177000
C      -1.333000   -9.718000    0.988000
H      -0.873000   -9.128000    1.809000
H      -0.605000  -10.489000    0.657000
H      -2.240000  -10.224000    1.383000
C      -2.356000   -9.599000   -1.300000
H      -1.666000  -10.388000   -1.668000
H      -2.608000   -8.927000   -2.148000
H      -3.292000  -10.077000   -0.939000
O      -0.520000   -8.202000   -0.675000
C      -0.636000   -6.828000   -0.479000
H       0.175000   -6.510000    0.214000
C      -0.434000   -6.112000   -1.819000
H      -1.266000   -6.383000   -2.509000
H       0.524000   -6.448000   -2.274000
O      -0.390000   -4.702000   -1.607000
O      -3.429000   -3.012000    2.579000
C      -3.673000   -1.750000    1.948000
H      -4.274000   -1.927000    1.036000
H      -2.727000   -1.262000    1.604000
O      -4.444000   -0.910000    2.811000
C      -3.687000    0.074000    3.458000
C      -2.903000   -0.255000    4.581000
C      -2.046000    0.719000    5.120000
H      -1.367000    0.451000    5.912000
C      -2.042000    2.035000    4.626000
C      -2.833000    2.348000    3.498000
C      -3.669000    1.372000    2.935000
O      -4.387000    1.645000    1.767000
C      -5.668000    2.221000    2.014000
H      -5.541000    3.251000    2.414000
H      -6.236000    1.618000    2.760000
C      -6.461000    2.281000    0.704000
H      -5.866000    2.856000   -0.039000
O      -7.654000    2.967000    0.923000
C      -8.703000    2.110000    0.532000
C      -9.468000    2.760000   -0.625000
H     -10.308000    2.110000   -0.949000
H      -8.787000    2.912000   -1.489000
H      -9.873000    3.748000   -0.317000
C      -9.638000    1.903000    1.727000
H     -10.505000    1.270000    1.440000
H     -10.011000    2.880000    2.101000
H      -9.090000    1.397000    2.550000
O      -8.225000    0.852000    0.110000
C      -6.834000    0.898000    0.183000
H      -6.499000    0.092000    0.874000
C      -6.249000    0.617000   -1.205000
H      -6.527000    1.447000   -1.895000
H      -6.681000   -0.328000   -1.602000
O      -4.831000    0.484000   -1.111000
O      -2.769000    3.618000    2.904000
C      -1.616000    3.821000    2.079000
H      -1.921000    4.419000    1.198000
H      -1.211000    2.861000    1.674000
O      -0.630000    4.574000    2.789000
C       0.409000    3.792000    3.310000
C       0.212000    3.025000    4.474000
C       1.235000    2.160000    4.893000
H       1.056000    1.480000    5.707000
C       2.495000    2.168000    4.275000
C       2.677000    2.931000    3.100000
C       1.639000    3.757000    2.638000
O       1.792000    4.488000    1.458000
C       2.347000    5.785000    1.675000
H       3.411000    5.684000    1.985000
H       1.795000    6.323000    2.480000
C       2.272000    6.600000    0.380000
H       2.790000    6.029000   -0.423000
O       2.952000    7.803000    0.560000
C       2.058000    8.837000    0.213000
C       1.943000    9.801000    1.397000
H       2.936000   10.232000    1.647000
H       1.559000    9.258000    2.288000
H       1.240000   10.628000    1.158000
C       2.608000    9.575000   -1.012000
H       1.934000   10.413000   -1.295000
H       2.682000    8.877000   -1.873000
H       3.620000    9.982000   -0.800000
O       0.774000    8.342000   -0.092000
C       0.840000    6.952000   -0.006000
H       0.110000    6.622000    0.766000
C       0.429000    6.345000   -1.352000
H       1.190000    6.612000   -2.122000
H      -0.549000    6.772000   -1.666000
O       0.304000    4.929000   -1.223000
O       3.883000    2.877000    2.382000
C       4.068000    1.673000    1.628000
H       4.584000    1.931000    0.683000
H       3.095000    1.209000    1.331000
O       4.914000    0.767000    2.342000
C       4.219000   -0.270000    2.977000
C       3.575000   -0.043000    4.207000
C       2.780000   -1.063000    4.755000
H       2.195000   -0.861000    5.636000
C       2.706000   -2.332000    4.156000
C       3.355000   -2.542000    2.918000
C       4.126000   -1.517000    2.348000
O       4.702000   -1.688000    1.087000
C       6.030000   -2.206000    1.142000
H       5.999000   -3.267000    1.476000
H       6.652000   -1.628000    1.864000
C       6.665000   -2.129000   -0.249000
H       6.006000   -2.668000   -0.966000
O       7.898000   -2.778000   -0.226000
C       8.872000   -1.829000   -0.597000
C       9.843000   -1.635000    0.572000
H      10.638000   -0.908000    0.302000
H      10.316000   -2.602000    0.849000
H       9.294000   -1.245000    1.457000
C       9.626000   -2.356000   -1.821000
H       8.917000   -2.506000   -2.664000
H      10.112000   -3.328000   -1.591000
H      10.404000   -1.629000   -2.141000
O       8.297000   -0.584000   -0.923000
C       6.928000   -0.693000   -0.691000
H       6.654000    0.040000    0.101000
C       6.170000   -0.325000   -1.970000
H       6.401000   -1.074000   -2.762000
H       6.509000    0.675000   -2.323000
O       4.769000   -0.283000   -1.704000
C       3.996000   -0.143000   -2.860000
C       3.483000   -1.290000   -3.482000
C       2.641000   -1.175000   -4.606000
C       2.275000    0.106000   -5.051000
H       1.553000    0.207000   -5.842000
C       2.828000    1.261000   -4.474000
C       3.648000    1.133000   -3.331000
O       4.102000    2.266000   -2.636000
C       3.096000    2.906000   -1.841000
H       3.566000    3.263000   -0.904000
H       2.291000    2.196000   -1.528000
O       2.581000    4.052000   -2.526000
C       1.329000    3.835000   -3.115000
C       1.226000    3.127000   -4.326000
C      -0.049000    2.790000   -4.810000
H      -0.136000    2.154000   -5.673000
C      -1.215000    3.259000   -4.179000
C      -1.094000    3.976000   -2.966000
C       0.177000    4.278000   -2.453000
O      -2.231000    4.384000   -2.251000
C      -2.877000    3.331000   -1.529000
H      -3.255000    3.745000   -0.575000
H      -2.168000    2.512000   -1.250000
O      -4.004000    2.854000   -2.267000
C      -3.769000    1.649000   -2.940000
C      -3.087000    1.640000   -4.173000
C      -2.811000    0.405000   -4.787000
H      -2.227000    0.373000   -5.693000
C      -3.270000   -0.802000   -4.230000
C      -3.924000   -0.776000   -2.977000
C      -4.202000    0.450000   -2.359000
O      -4.308000   -1.967000   -2.337000
C      -3.228000   -2.681000   -1.723000
H      -3.600000   -3.132000   -0.783000
H      -2.388000   -2.003000   -1.429000
O      -2.799000   -3.753000   -2.567000
C      -1.624000   -3.474000   -3.276000
C      -1.663000   -2.666000   -4.427000
C      -0.453000   -2.287000   -5.034000
H      -0.466000   -1.584000   -5.849000
C       0.777000   -2.802000   -4.583000
C       0.797000   -3.619000   -3.429000
C      -0.405000   -3.965000   -2.795000
O       2.009000   -4.080000   -2.893000
C       2.732000   -3.096000   -2.146000
H       3.203000   -3.597000   -1.278000
H       2.061000   -2.309000   -1.722000
O       3.783000   -2.547000   -2.945000
C       2.084000   -2.427000   -5.264000
H       2.809000   -3.252000   -5.091000
C       2.019000   -2.326000   -6.811000
H       3.034000   -2.064000   -7.186000
H       1.339000   -1.518000   -7.139000
C       1.578000   -3.638000   -7.477000
H       0.544000   -3.899000   -7.166000
H       2.247000   -4.461000   -7.141000
C       1.616000   -3.506000   -8.978000
C       0.729000   -2.634000   -9.635000
H      -0.001000   -2.066000   -9.072000
C       0.775000   -2.496000  -11.025000
H       0.090000   -1.823000  -11.524000
C       1.705000   -3.225000  -11.770000
H       1.742000   -3.114000  -12.846000
C       2.587000   -4.098000  -11.126000
H       3.307000   -4.662000  -11.705000
C       2.543000   -4.241000   -9.736000
H       3.236000   -4.918000   -9.252000
C      -3.000000   -2.130000   -4.911000
H      -3.798000   -2.829000   -4.580000
C      -3.174000   -2.105000   -6.452000
H      -2.362000   -1.542000   -6.955000
H      -4.125000   -1.579000   -6.686000
C      -3.245000   -3.528000   -7.035000
H      -4.148000   -4.048000   -6.646000
H      -2.358000   -4.106000   -6.695000
C      -3.307000   -3.512000   -8.541000
C      -4.408000   -2.942000   -9.204000
H      -5.226000   -2.512000   -8.641000
C      -4.460000   -2.927000  -10.602000
H      -5.307000   -2.481000  -11.107000
C      -3.422000   -3.491000  -11.347000
H      -3.462000   -3.477000  -12.428000
C      -2.335000   -4.081000  -10.697000
H      -1.535000   -4.526000  -11.275000
C      -2.277000   -4.095000   -9.300000
H      -1.429000   -4.559000   -8.812000
C      -2.590000    2.953000   -4.757000
H      -3.286000    3.757000   -4.430000
C      -2.675000    3.015000   -6.307000
H      -3.713000    2.760000   -6.616000
H      -2.010000    2.268000   -6.784000
C      -2.331000    4.406000   -6.860000
H      -1.378000    4.771000   -6.419000
H      -3.121000    5.134000   -6.574000
C      -2.198000    4.354000   -8.359000
C      -0.930000    4.218000   -8.952000
H      -0.039000    4.167000   -8.339000
C      -0.809000    4.133000  -10.343000
H       0.170000    4.025000  -10.795000
C      -1.951000    4.184000  -11.148000
H      -1.856000    4.119000  -12.224000
C      -3.216000    4.313000  -10.565000
H      -4.098000    4.348000  -11.191000
C      -3.342000    4.393000   -9.174000
H      -4.328000    4.482000   -8.732000
C       2.487000    2.639000   -5.016000
H       3.316000    3.331000   -4.752000
C       2.414000    2.732000   -6.565000
H       2.147000    3.775000   -6.846000
H       1.616000    2.085000   -6.975000
C       3.748000    2.380000   -7.244000
H       4.160000    1.430000   -6.842000
H       4.489000    3.180000   -7.023000
C       3.557000    2.228000   -8.732000
C       4.017000    3.214000   -9.620000
H       4.532000    4.092000   -9.249000
C       3.798000    3.080000  -10.995000
H       4.147000    3.846000  -11.676000
C       3.125000    1.960000  -11.492000
H       2.952000    1.860000  -12.556000
C       2.677000    0.968000  -10.617000
H       2.159000    0.100000  -11.003000
C       2.894000    1.097000   -9.242000
H       2.539000    0.322000   -8.574000
C       1.865000   -3.436000    4.774000
H       2.295000   -4.406000    4.439000
C       1.978000   -3.510000    6.321000
H       1.549000   -2.609000    6.801000
H       3.057000   -3.553000    6.585000
C       1.281000   -4.755000    6.899000
H       1.750000   -5.664000    6.463000
H       0.214000   -4.743000    6.591000
C       1.323000   -4.873000    8.411000
C       1.992000   -3.953000    9.249000
H       2.533000   -3.107000    8.850000
C       1.972000   -4.116000   10.638000
H       2.484000   -3.404000   11.272000
C       1.293000   -5.193000   11.209000
H       1.277000   -5.315000   12.284000
C       0.635000   -6.115000   10.392000
H       0.110000   -6.951000   10.835000
C       0.651000   -5.957000    9.003000
H       0.133000   -6.680000    8.385000
C       3.636000    1.337000    4.835000
H       4.594000    1.813000    4.530000
C       3.721000    1.312000    6.386000
H       4.583000    0.674000    6.683000
H       2.820000    0.855000    6.840000
C       3.919000    2.713000    6.988000
H       3.215000    3.433000    6.519000
H       4.947000    3.077000    6.773000
C       3.690000    2.686000    8.478000
C       4.623000    2.066000    9.326000
H       5.522000    1.622000    8.918000
C       4.394000    2.014000   10.704000
H       5.116000    1.534000   11.353000
C       3.235000    2.578000   11.245000
H       3.060000    2.535000   12.312000
C       2.302000    3.196000   10.408000
H       1.403000    3.630000   10.827000
C       2.527000    3.252000    9.030000
H       1.791000    3.727000    8.395000
C      -1.116000    3.087000    5.210000
H      -1.567000    4.086000    5.021000
C      -0.955000    3.050000    6.754000
H      -0.296000    3.896000    7.052000
H      -0.457000    2.122000    7.092000
C      -2.286000    3.187000    7.507000
H      -2.958000    2.337000    7.260000
H      -2.793000    4.122000    7.184000
C      -2.049000    3.198000    8.997000
C      -1.559000    2.050000    9.647000
H      -1.365000    1.142000    9.089000
C      -1.327000    2.064000   11.025000
H      -0.952000    1.176000   11.519000
C      -1.585000    3.219000   11.767000
H      -1.405000    3.228000   12.834000
C      -2.076000    4.363000   11.131000
H      -2.276000    5.257000   11.708000
C      -2.308000    4.354000    9.752000
H      -2.685000    5.250000    9.275000
C      -2.914000   -1.682000    5.103000
H      -3.892000   -2.142000    4.843000
C      -2.860000   -1.813000    6.649000
H      -1.986000   -1.286000    7.082000
H      -2.743000   -2.889000    6.903000
C      -4.146000   -1.290000    7.311000
H      -5.010000   -1.914000    6.995000
H      -4.341000   -0.252000    6.961000
C      -4.050000   -1.319000    8.816000
C      -4.112000   -0.125000    9.555000
H      -4.221000    0.828000    9.053000
C      -4.030000   -0.153000   10.950000
H      -4.073000    0.771000   11.513000
C      -3.893000   -1.371000   11.620000
H      -3.828000   -1.390000   12.700000
C      -3.847000   -2.565000   10.895000
H      -3.751000   -3.510000   11.416000
C      -3.930000   -2.542000    9.500000
H      -3.905000   -3.476000    8.954000
