132
00000001
N      -4.971000   -2.296000   -1.404000
O      -4.596000    1.701000   -1.594000
C      -3.685000    1.003000   -2.341000
C      -3.770000   -0.401000   -2.288000
C      -2.884000   -1.133000   -3.058000
H      -2.942000   -2.081000   -3.033000
C      -1.913000   -0.552000   -3.868000
C      -1.821000    0.839000   -3.891000
C      -2.720000    1.605000   -3.141000
H      -2.671000    2.552000   -3.179000
C      -4.534000    3.117000   -1.679000
H      -5.224000    3.509000   -1.103000
H      -4.684000    3.395000   -2.606000
H      -3.651000    3.424000   -1.385000
C      -4.779000   -1.036000   -1.425000
H      -5.308000   -0.485000   -0.862000
C      -5.989000   -2.774000   -0.474000
H      -6.736000   -3.184000   -0.981000
H      -6.350000   -2.011000    0.045000
C      -1.008000   -1.469000   -4.682000
H      -0.674000   -0.972000   -5.472000
H      -1.540000   -2.236000   -5.012000
N       4.474000   -3.157000   -1.404000
O       0.825000   -4.831000   -1.594000
C       0.974000   -3.693000   -2.341000
C       2.232000   -3.065000   -2.288000
C       2.423000   -1.931000   -3.058000
H       3.273000   -1.507000   -3.033000
C       1.435000   -1.381000   -3.868000
C       0.184000   -1.997000   -3.891000
C      -0.029000   -3.158000   -3.141000
H      -0.874000   -3.589000   -3.179000
C      -0.432000   -5.485000   -1.679000
H      -0.427000   -6.279000   -1.103000
H      -0.598000   -5.754000   -2.606000
H      -1.140000   -4.874000   -1.385000
C       3.287000   -3.621000   -1.425000
H       3.074000   -4.355000   -0.862000
C       5.397000   -3.800000   -0.474000
H       6.125000   -4.241000   -0.981000
H       4.917000   -4.493000    0.045000
C       1.776000   -0.138000   -4.682000
H       1.179000   -0.097000   -5.472000
H       2.706000   -0.216000   -5.012000
N       0.497000    5.453000   -1.404000
O       3.771000    3.130000   -1.594000
C       2.711000    2.690000   -2.341000
C       1.538000    3.466000   -2.288000
C       0.461000    3.064000   -3.058000
H      -0.331000    3.588000   -3.033000
C       0.478000    1.933000   -3.868000
C       1.638000    1.157000   -3.891000
C       2.750000    1.554000   -3.141000
H       3.545000    1.037000   -3.179000
C       4.966000    2.368000   -1.679000
H       5.651000    2.770000   -1.103000
H       5.282000    2.359000   -2.606000
H       4.790000    1.450000   -1.385000
C       1.492000    4.657000   -1.425000
H       2.235000    4.839000   -0.862000
C       0.592000    6.574000   -0.474000
H       0.611000    7.425000   -0.981000
H       1.433000    6.505000    0.045000
C      -0.768000    1.607000   -4.682000
H      -0.505000    1.070000   -5.472000
H      -1.166000    2.451000   -5.012000
N      -4.474000   -3.157000    1.404000
O      -0.825000   -4.831000    1.594000
C      -0.974000   -3.693000    2.341000
C      -2.232000   -3.065000    2.288000
C      -2.423000   -1.931000    3.058000
H      -3.273000   -1.507000    3.033000
C      -1.435000   -1.381000    3.868000
C      -0.184000   -1.997000    3.891000
C       0.029000   -3.158000    3.141000
H       0.874000   -3.589000    3.179000
C       0.432000   -5.485000    1.679000
H       0.427000   -6.279000    1.103000
H       0.598000   -5.754000    2.606000
H       1.140000   -4.874000    1.385000
C      -3.287000   -3.621000    1.425000
H      -3.074000   -4.355000    0.862000
C      -5.397000   -3.800000    0.474000
H      -6.125000   -4.241000    0.981000
H      -4.917000   -4.493000   -0.045000
C      -1.776000   -0.138000    4.682000
H      -1.179000   -0.097000    5.472000
H      -2.706000   -0.216000    5.012000
N      -0.497000    5.453000    1.404000
O      -3.771000    3.130000    1.594000
C      -2.711000    2.690000    2.341000
C      -1.538000    3.466000    2.288000
C      -0.461000    3.064000    3.058000
H       0.331000    3.588000    3.033000
C      -0.478000    1.933000    3.868000
C      -1.638000    1.157000    3.891000
C      -2.750000    1.554000    3.141000
H      -3.545000    1.037000    3.179000
C      -4.966000    2.368000    1.679000
H      -5.651000    2.770000    1.103000
H      -5.282000    2.359000    2.606000
H      -4.790000    1.450000    1.385000
C      -1.492000    4.657000    1.425000
H      -2.235000    4.839000    0.862000
C      -0.592000    6.574000    0.474000
H      -0.611000    7.425000    0.981000
H      -1.433000    6.505000   -0.045000
C       0.768000    1.607000    4.682000
H       0.505000    1.070000    5.472000
H       1.166000    2.451000    5.012000
N       4.971000   -2.296000    1.404000
O       4.596000    1.701000    1.594000
C       3.685000    1.003000    2.341000
C       3.770000   -0.401000    2.288000
C       2.884000   -1.133000    3.058000
H       2.942000   -2.081000    3.033000
C       1.913000   -0.552000    3.868000
C       1.821000    0.839000    3.891000
C       2.720000    1.605000    3.141000
H       2.671000    2.552000    3.179000
C       4.534000    3.117000    1.679000
H       5.224000    3.509000    1.103000
H       4.684000    3.395000    2.606000
H       3.651000    3.424000    1.385000
C       4.779000   -1.036000    1.425000
H       5.308000   -0.485000    0.862000
C       5.989000   -2.774000    0.474000
H       6.736000   -3.184000    0.981000
H       6.350000   -2.011000   -0.045000
C       1.008000   -1.469000    4.682000
H       0.674000   -0.972000    5.472000
H       1.540000   -2.236000    5.012000
